
     RDKit          2D

  9  8  0  0  0  0  0  0  0  0999 V2000
   -3.1492    0.4401    0.0000 C   0  0  0  0  0  0  0  0  0  0  0  0
   -1.6886    0.0985    0.0000 C   0  0  0  0  0  0  0  0  0  0  0  0
   -1.2542   -1.3372    0.0000 C   0  0  0  0  0  0  0  0  0  0  0  0
    0.2064   -1.6788    0.0000 Cl  0  0  0  0  0  0  0  0  0  0  0  0
   -0.6625    1.1926    0.0000 O   0  0  0  0  0  0  0  0  0  0  0  0
    0.7981    0.8510    0.0000 C   0  0  0  0  0  0  0  0  0  0  0  0
    1.8243    1.9450    0.0000 C   0  0  0  0  0  0  0  0  0  0  0  0
    1.2325   -0.5848    0.0000 C   0  0  0  0  0  0  0  0  0  0  0  0
    2.6931   -0.9264    0.0000 Cl  0  0  0  0  0  0  0  0  0  0  0  0
  1  2  1  0
  2  3  1  0
  3  4  1  0
  2  5  1  0
  5  6  1  0
  6  7  1  0
  6  8  1  0
  8  9  1  0
M  END
> <Identifier>
Drug_1

> <Carcinogen>
1

$$$$

     RDKit          2D

 16 16  0  0  0  0  0  0  0  0999 V2000
   -5.7554    0.9747    0.0000 C   0  0  0  0  0  0  0  0  0  0  0  0
   -4.9153   -0.2679    0.0000 O   0  0  0  0  0  0  0  0  0  0  0  0
   -3.4190   -0.1616    0.0000 C   0  0  0  0  0  0  0  0  0  0  0  0
   -2.7630    1.1874    0.0000 C   0  0  0  0  0  0  0  0  0  0  0  0
   -1.2668    1.2937    0.0000 C   0  0  0  0  0  0  0  0  0  0  0  0
   -0.4266    0.0511    0.0000 C   0  0  0  0  0  0  0  0  0  0  0  0
    1.0697    0.1574    0.0000 C   0  0  0  0  0  0  0  0  0  0  0  0
    1.7257    1.5063    0.0000 O   0  0  0  0  0  0  0  0  0  0  0  0
    1.9098   -1.0852    0.0000 C   0  0  0  0  0  0  0  0  0  0  0  0
    1.2538   -2.4341    0.0000 Br  0  0  0  0  0  0  0  0  0  0  0  0
    3.4061   -0.9789    0.0000 C   0  0  0  0  0  0  0  0  0  0  0  0
    4.0621    0.3700    0.0000 C   0  0  0  0  0  0  0  0  0  0  0  0
    3.2219    1.6127    0.0000 O   0  0  0  0  0  0  0  0  0  0  0  0
    5.5583    0.4764    0.0000 O   0  0  0  0  0  0  0  0  0  0  0  0
   -1.0826   -1.2978    0.0000 C   0  0  0  0  0  0  0  0  0  0  0  0
   -2.5788   -1.4042    0.0000 C   0  0  0  0  0  0  0  0  0  0  0  0
  1  2  1  0
  2  3  1  0
  3  4  2  0
  4  5  1  0
  5  6  2  0
  6  7  1  0
  7  8  2  0
  7  9  1  0
  9 10  1  0
  9 11  2  0
 11 12  1  0
 12 13  2  0
 12 14  1  0
  6 15  1  0
 15 16  2  0
 16  3  1  0
M  END
> <Identifier>
Drug_2

> <Carcinogen>
1

$$$$

     RDKit          2D

 27 29  0  0  0  0  0  0  0  0999 V2000
    4.6232   -2.4006    0.0000 O   0  0  0  0  0  0  0  0  0  0  0  0
    5.2119   -1.0210    0.0000 S   0  0  0  0  0  0  0  0  0  0  0  0
    5.8007    0.3587    0.0000 O   0  0  0  0  0  0  0  0  0  0  0  0
    6.5916   -1.6097    0.0000 O   0  0  0  0  0  0  0  0  0  0  0  0
    3.8323   -0.4322    0.0000 C   0  0  0  0  0  0  0  0  0  0  0  0
    2.6326   -1.3327    0.0000 C   0  0  0  0  0  0  0  0  0  0  0  0
    1.2530   -0.7439    0.0000 C   0  0  0  0  0  0  0  0  0  0  0  0
    0.0533   -1.6444    0.0000 S   0  0  0  0  0  0  0  0  0  0  0  0
    0.9538   -2.8440    0.0000 O   0  0  0  0  0  0  0  0  0  0  0  0
   -0.8471   -0.4447    0.0000 O   0  0  0  0  0  0  0  0  0  0  0  0
   -1.1464   -2.5448    0.0000 O   0  0  0  0  0  0  0  0  0  0  0  0
    1.0730    0.7452    0.0000 C   0  0  0  0  0  0  0  0  0  0  0  0
   -0.3066    1.3340    0.0000 C   0  0  0  0  0  0  0  0  0  0  0  0
   -1.5063    0.4335    0.0000 N   0  0  0  0  0  0  0  0  0  0  0  0
   -2.8859    1.0223    0.0000 N   0  0  0  0  0  0  0  0  0  0  0  0
   -4.0856    0.1218    0.0000 C   0  0  0  0  0  0  0  0  0  0  0  0
   -5.4652    0.7106    0.0000 C   0  0  0  0  0  0  0  0  0  0  0  0
   -6.6649   -0.1899    0.0000 C   0  0  0  0  0  0  0  0  0  0  0  0
   -6.4849   -1.6790    0.0000 C   0  0  0  0  0  0  0  0  0  0  0  0
   -5.1053   -2.2678    0.0000 C   0  0  0  0  0  0  0  0  0  0  0  0
   -3.9056   -1.3673    0.0000 C   0  0  0  0  0  0  0  0  0  0  0  0
   -0.4865    2.8231    0.0000 C   0  0  0  0  0  0  0  0  0  0  0  0
   -1.8662    3.4119    0.0000 O   0  0  0  0  0  0  0  0  0  0  0  0
    0.7131    3.7236    0.0000 C   0  0  0  0  0  0  0  0  0  0  0  0
    2.0928    3.1348    0.0000 C   0  0  0  0  0  0  0  0  0  0  0  0
    2.2727    1.6457    0.0000 C   0  0  0  0  0  0  0  0  0  0  0  0
    3.6524    1.0569    0.0000 C   0  0  0  0  0  0  0  0  0  0  0  0
  1  2  2  0
  2  3  2  0
  2  4  1  0
  2  5  1  0
  5  6  2  0
  6  7  1  0
  7  8  1  0
  8  9  2  0
  8 10  2  0
  8 11  1  0
  7 12  2  0
 12 13  1  0
 13 14  1  0
 14 15  2  0
 15 16  1  0
 16 17  2  0
 17 18  1  0
 18 19  2  0
 19 20  1  0
 20 21  2  0
 13 22  2  0
 22 23  1  0
 22 24  1  0
 24 25  2  0
 25 26  1  0
 26 27  2  0
 27  5  1  0
 26 12  1  0
 21 16  1  0
M  END
> <Identifier>
Drug_3

> <Carcinogen>
1

$$$$

     RDKit          2D

 31 34  0  0  0  0  0  0  0  0999 V2000
    6.1499    2.6943    0.0000 O   0  0  0  0  0  0  0  0  0  0  0  0
    6.4672    1.2282    0.0000 S   0  0  0  0  0  0  0  0  0  0  0  0
    6.7845   -0.2378    0.0000 O   0  0  0  0  0  0  0  0  0  0  0  0
    7.9332    1.5455    0.0000 O   0  0  0  0  0  0  0  0  0  0  0  0
    5.0011    0.9109    0.0000 C   0  0  0  0  0  0  0  0  0  0  0  0
    3.9933    2.0219    0.0000 C   0  0  0  0  0  0  0  0  0  0  0  0
    2.5273    1.7046    0.0000 C   0  0  0  0  0  0  0  0  0  0  0  0
    2.0690    0.2763    0.0000 C   0  0  0  0  0  0  0  0  0  0  0  0
    0.6030   -0.0410    0.0000 N   0  0  0  0  0  0  0  0  0  0  0  0
   -0.4049    1.0700    0.0000 N   0  0  0  0  0  0  0  0  0  0  0  0
   -1.8709    0.7527    0.0000 C   0  0  0  0  0  0  0  0  0  0  0  0
   -2.3291   -0.6756    0.0000 C   0  0  0  0  0  0  0  0  0  0  0  0
   -3.7952   -0.9929    0.0000 C   0  0  0  0  0  0  0  0  0  0  0  0
   -4.2534   -2.4212    0.0000 S   0  0  0  0  0  0  0  0  0  0  0  0
   -2.8251   -2.8794    0.0000 O   0  0  0  0  0  0  0  0  0  0  0  0
   -5.6817   -1.9630    0.0000 O   0  0  0  0  0  0  0  0  0  0  0  0
   -4.7117   -3.8495    0.0000 O   0  0  0  0  0  0  0  0  0  0  0  0
   -4.8030    0.1181    0.0000 C   0  0  0  0  0  0  0  0  0  0  0  0
   -6.2691   -0.1992    0.0000 C   0  0  0  0  0  0  0  0  0  0  0  0
   -7.2769    0.9118    0.0000 C   0  0  0  0  0  0  0  0  0  0  0  0
   -6.8187    2.3401    0.0000 C   0  0  0  0  0  0  0  0  0  0  0  0
   -5.3526    2.6574    0.0000 C   0  0  0  0  0  0  0  0  0  0  0  0
   -4.3448    1.5464    0.0000 C   0  0  0  0  0  0  0  0  0  0  0  0
   -2.8787    1.8637    0.0000 C   0  0  0  0  0  0  0  0  0  0  0  0
   -2.4205    3.2920    0.0000 O   0  0  0  0  0  0  0  0  0  0  0  0
    3.0768   -0.8347    0.0000 C   0  0  0  0  0  0  0  0  0  0  0  0
    2.6186   -2.2630    0.0000 C   0  0  0  0  0  0  0  0  0  0  0  0
    3.6264   -3.3740    0.0000 C   0  0  0  0  0  0  0  0  0  0  0  0
    5.0925   -3.0567    0.0000 C   0  0  0  0  0  0  0  0  0  0  0  0
    5.5507   -1.6284    0.0000 C   0  0  0  0  0  0  0  0  0  0  0  0
    4.5429   -0.5174    0.0000 C   0  0  0  0  0  0  0  0  0  0  0  0
  1  2  2  0
  2  3  2  0
  2  4  1  0
  2  5  1  0
  5  6  2  0
  6  7  1  0
  7  8  2  0
  8  9  1  0
  9 10  2  0
 10 11  1  0
 11 12  2  0
 12 13  1  0
 13 14  1  0
 14 15  2  0
 14 16  2  0
 14 17  1  0
 13 18  2  0
 18 19  1  0
 19 20  2  0
 20 21  1  0
 21 22  2  0
 22 23  1  0
 23 24  2  0
 24 25  1  0
  8 26  1  0
 26 27  2  0
 27 28  1  0
 28 29  2  0
 29 30  1  0
 30 31  2  0
 31  5  1  0
 24 11  1  0
 31 26  1  0
 23 18  1  0
M  END
> <Identifier>
Drug_4

> <Carcinogen>
1

$$$$

     RDKit          2D

  8  8  0  0  0  0  0  0  0  0999 V2000
   -3.0851    0.4695    0.0000 Cl  0  0  0  0  0  0  0  0  0  0  0  0
   -2.0677   -0.6327    0.0000 C   0  0  0  0  0  0  0  0  0  0  0  0
   -0.6045   -0.3028    0.0000 C   0  0  0  0  0  0  0  0  0  0  0  0
   -0.1586    1.1294    0.0000 C   0  0  0  0  0  0  0  0  0  0  0  0
    1.3047    1.4594    0.0000 C   0  0  0  0  0  0  0  0  0  0  0  0
    2.3221    0.3572    0.0000 C   0  0  0  0  0  0  0  0  0  0  0  0
    1.8762   -1.0750    0.0000 C   0  0  0  0  0  0  0  0  0  0  0  0
    0.4129   -1.4050    0.0000 N   0  0  0  0  0  0  0  0  0  0  0  0
  1  2  1  0
  2  3  1  0
  3  4  2  0
  4  5  1  0
  5  6  2  0
  6  7  1  0
  7  8  2  0
  8  3  1  0
M  END
> <Identifier>
Drug_5

> <Carcinogen>
1

$$$$

     RDKit          2D

 14 15  0  0  0  0  0  0  0  0999 V2000
   -5.6593    0.3863    0.0000 N   0  0  0  0  0  0  0  0  0  0  0  0
   -4.2716    0.9556    0.0000 C   0  0  0  0  0  0  0  0  0  0  0  0
   -3.0847    0.0384    0.0000 C   0  0  0  0  0  0  0  0  0  0  0  0
   -1.6969    0.6077    0.0000 N   0  0  0  0  0  0  0  0  0  0  0  0
   -0.5100   -0.3095    0.0000 C   0  0  0  0  0  0  0  0  0  0  0  0
   -0.7108   -1.7960    0.0000 C   0  0  0  0  0  0  0  0  0  0  0  0
    0.4761   -2.7132    0.0000 C   0  0  0  0  0  0  0  0  0  0  0  0
    1.8639   -2.1439    0.0000 C   0  0  0  0  0  0  0  0  0  0  0  0
    2.0647   -0.6574    0.0000 C   0  0  0  0  0  0  0  0  0  0  0  0
    3.4525   -0.0881    0.0000 C   0  0  0  0  0  0  0  0  0  0  0  0
    3.6533    1.3984    0.0000 C   0  0  0  0  0  0  0  0  0  0  0  0
    2.4664    2.3156    0.0000 C   0  0  0  0  0  0  0  0  0  0  0  0
    1.0786    1.7463    0.0000 C   0  0  0  0  0  0  0  0  0  0  0  0
    0.8778    0.2598    0.0000 C   0  0  0  0  0  0  0  0  0  0  0  0
  1  2  1  0
  2  3  1  0
  3  4  1  0
  4  5  1  0
  5  6  2  0
  6  7  1  0
  7  8  2  0
  8  9  1  0
  9 10  2  0
 10 11  1  0
 11 12  2  0
 12 13  1  0
 13 14  2  0
 14  5  1  0
 14  9  1  0
M  END
> <Identifier>
Drug_6

> <Carcinogen>
1

$$$$

     RDKit          2D

 27 29  0  0  0  0  0  0  0  0999 V2000
   -6.1681    2.6446    0.0000 O   0  0  0  0  0  0  0  0  0  0  0  0
   -6.8548    1.3110    0.0000 S   0  0  0  0  0  0  0  0  0  0  0  0
   -7.5415   -0.0226    0.0000 O   0  0  0  0  0  0  0  0  0  0  0  0
   -8.1884    1.9977    0.0000 O   0  0  0  0  0  0  0  0  0  0  0  0
   -5.5212    0.6243    0.0000 C   0  0  0  0  0  0  0  0  0  0  0  0
   -4.2597    1.4358    0.0000 C   0  0  0  0  0  0  0  0  0  0  0  0
   -2.9261    0.7491    0.0000 C   0  0  0  0  0  0  0  0  0  0  0  0
   -2.8540   -0.7491    0.0000 C   0  0  0  0  0  0  0  0  0  0  0  0
   -1.5205   -1.4358    0.0000 N   0  0  0  0  0  0  0  0  0  0  0  0
   -0.2590   -0.6243    0.0000 N   0  0  0  0  0  0  0  0  0  0  0  0
    1.0746   -1.3110    0.0000 C   0  0  0  0  0  0  0  0  0  0  0  0
    1.1467   -2.8093    0.0000 C   0  0  0  0  0  0  0  0  0  0  0  0
   -0.1148   -3.6208    0.0000 O   0  0  0  0  0  0  0  0  0  0  0  0
    2.4803   -3.4960    0.0000 C   0  0  0  0  0  0  0  0  0  0  0  0
    3.7418   -2.6844    0.0000 C   0  0  0  0  0  0  0  0  0  0  0  0
    3.6697   -1.1861    0.0000 C   0  0  0  0  0  0  0  0  0  0  0  0
    4.9312   -0.3746    0.0000 C   0  0  0  0  0  0  0  0  0  0  0  0
    4.8591    1.1237    0.0000 C   0  0  0  0  0  0  0  0  0  0  0  0
    6.1206    1.9353    0.0000 S   0  0  0  0  0  0  0  0  0  0  0  0
    6.9321    0.6738    0.0000 O   0  0  0  0  0  0  0  0  0  0  0  0
    5.3090    3.1968    0.0000 O   0  0  0  0  0  0  0  0  0  0  0  0
    7.3821    2.7468    0.0000 O   0  0  0  0  0  0  0  0  0  0  0  0
    3.5255    1.8104    0.0000 C   0  0  0  0  0  0  0  0  0  0  0  0
    2.2640    0.9988    0.0000 C   0  0  0  0  0  0  0  0  0  0  0  0
    2.3361   -0.4994    0.0000 C   0  0  0  0  0  0  0  0  0  0  0  0
   -4.1155   -1.5607    0.0000 C   0  0  0  0  0  0  0  0  0  0  0  0
   -5.4491   -0.8740    0.0000 C   0  0  0  0  0  0  0  0  0  0  0  0
  1  2  2  0
  2  3  2  0
  2  4  1  0
  2  5  1  0
  5  6  2  0
  6  7  1  0
  7  8  2  0
  8  9  1  0
  9 10  2  0
 10 11  1  0
 11 12  2  0
 12 13  1  0
 12 14  1  0
 14 15  2  0
 15 16  1  0
 16 17  2  0
 17 18  1  0
 18 19  1  0
 19 20  2  0
 19 21  2  0
 19 22  1  0
 18 23  2  0
 23 24  1  0
 24 25  2  0
  8 26  1  0
 26 27  2  0
 27  5  1  0
 25 11  1  0
 25 16  1  0
M  END
> <Identifier>
Drug_7

> <Carcinogen>
1

$$$$

     RDKit          2D

 52 57  0  0  0  0  0  0  0  0999 V2000
  -17.0014    1.9732    0.0000 N   0  0  0  0  0  0  0  0  0  0  0  0
  -15.5591    1.5611    0.0000 C   0  0  0  0  0  0  0  0  0  0  0  0
  -14.4811    2.6042    0.0000 C   0  0  0  0  0  0  0  0  0  0  0  0
  -13.0388    2.1921    0.0000 C   0  0  0  0  0  0  0  0  0  0  0  0
  -12.6745    0.7371    0.0000 C   0  0  0  0  0  0  0  0  0  0  0  0
  -11.2322    0.3250    0.0000 N   0  0  0  0  0  0  0  0  0  0  0  0
  -10.1542    1.3681    0.0000 N   0  0  0  0  0  0  0  0  0  0  0  0
   -8.7120    0.9560    0.0000 C   0  0  0  0  0  0  0  0  0  0  0  0
   -8.3476   -0.4991    0.0000 C   0  0  0  0  0  0  0  0  0  0  0  0
   -6.9053   -0.9111    0.0000 C   0  0  0  0  0  0  0  0  0  0  0  0
   -5.8274    0.1319    0.0000 C   0  0  0  0  0  0  0  0  0  0  0  0
   -4.3851   -0.2801    0.0000 C   0  0  0  0  0  0  0  0  0  0  0  0
   -4.0208   -1.7352    0.0000 C   0  0  0  0  0  0  0  0  0  0  0  0
   -2.5785   -2.1473    0.0000 C   0  0  0  0  0  0  0  0  0  0  0  0
   -1.5005   -1.1042    0.0000 C   0  0  0  0  0  0  0  0  0  0  0  0
   -0.0582   -1.5163    0.0000 N   0  0  0  0  0  0  0  0  0  0  0  0
    1.0198   -0.4732    0.0000 N   0  0  0  0  0  0  0  0  0  0  0  0
    2.4621   -0.8853    0.0000 C   0  0  0  0  0  0  0  0  0  0  0  0
    2.8264   -2.3403    0.0000 C   0  0  0  0  0  0  0  0  0  0  0  0
    1.7484   -3.3834    0.0000 S   0  0  0  0  0  0  0  0  0  0  0  0
    2.7915   -4.4614    0.0000 O   0  0  0  0  0  0  0  0  0  0  0  0
    0.7054   -2.3054    0.0000 O   0  0  0  0  0  0  0  0  0  0  0  0
    0.6704   -4.4264    0.0000 O   0  0  0  0  0  0  0  0  0  0  0  0
    4.2687   -2.7524    0.0000 C   0  0  0  0  0  0  0  0  0  0  0  0
    5.3467   -1.7093    0.0000 C   0  0  0  0  0  0  0  0  0  0  0  0
    6.7890   -2.1214    0.0000 C   0  0  0  0  0  0  0  0  0  0  0  0
    7.8670   -1.0784    0.0000 C   0  0  0  0  0  0  0  0  0  0  0  0
    9.3093   -1.4904    0.0000 S   0  0  0  0  0  0  0  0  0  0  0  0
    8.8972   -2.9327    0.0000 O   0  0  0  0  0  0  0  0  0  0  0  0
    9.7213   -0.0481    0.0000 O   0  0  0  0  0  0  0  0  0  0  0  0
   10.7516   -1.9024    0.0000 O   0  0  0  0  0  0  0  0  0  0  0  0
    7.5027    0.3767    0.0000 C   0  0  0  0  0  0  0  0  0  0  0  0
    8.5807    1.4198    0.0000 N   0  0  0  0  0  0  0  0  0  0  0  0
   10.0230    1.0077    0.0000 N   0  0  0  0  0  0  0  0  0  0  0  0
   11.1010    2.0508    0.0000 C   0  0  0  0  0  0  0  0  0  0  0  0
   12.5433    1.6387    0.0000 C   0  0  0  0  0  0  0  0  0  0  0  0
   13.6212    2.6818    0.0000 C   0  0  0  0  0  0  0  0  0  0  0  0
   13.2569    4.1369    0.0000 C   0  0  0  0  0  0  0  0  0  0  0  0
   11.8146    4.5489    0.0000 C   0  0  0  0  0  0  0  0  0  0  0  0
   10.7367    3.5059    0.0000 C   0  0  0  0  0  0  0  0  0  0  0  0
    6.0604    0.7888    0.0000 C   0  0  0  0  0  0  0  0  0  0  0  0
    5.6961    2.2439    0.0000 O   0  0  0  0  0  0  0  0  0  0  0  0
    4.9824   -0.2543    0.0000 C   0  0  0  0  0  0  0  0  0  0  0  0
    3.5401    0.1578    0.0000 C   0  0  0  0  0  0  0  0  0  0  0  0
    3.1758    1.6129    0.0000 N   0  0  0  0  0  0  0  0  0  0  0  0
   -1.8648    0.3509    0.0000 C   0  0  0  0  0  0  0  0  0  0  0  0
   -3.3071    0.7629    0.0000 C   0  0  0  0  0  0  0  0  0  0  0  0
   -6.1917    1.5870    0.0000 C   0  0  0  0  0  0  0  0  0  0  0  0
   -7.6340    1.9991    0.0000 C   0  0  0  0  0  0  0  0  0  0  0  0
  -13.7525   -0.3060    0.0000 C   0  0  0  0  0  0  0  0  0  0  0  0
  -13.3882   -1.7611    0.0000 N   0  0  0  0  0  0  0  0  0  0  0  0
  -15.1948    0.1061    0.0000 C   0  0  0  0  0  0  0  0  0  0  0  0
  1  2  1  0
  2  3  2  0
  3  4  1  0
  4  5  2  0
  5  6  1  0
  6  7  2  0
  7  8  1  0
  8  9  2  0
  9 10  1  0
 10 11  2  0
 11 12  1  0
 12 13  2  0
 13 14  1  0
 14 15  2  0
 15 16  1  0
 16 17  2  0
 17 18  1  0
 18 19  2  0
 19 20  1  0
 20 21  2  0
 20 22  2  0
 20 23  1  0
 19 24  1  0
 24 25  2  0
 25 26  1  0
 26 27  2  0
 27 28  1  0
 28 29  2  0
 28 30  2  0
 28 31  1  0
 27 32  1  0
 32 33  1  0
 33 34  2  0
 34 35  1  0
 35 36  2  0
 36 37  1  0
 37 38  2  0
 38 39  1  0
 39 40  2  0
 32 41  2  0
 41 42  1  0
 41 43  1  0
 43 44  2  0
 44 45  1  0
 15 46  1  0
 46 47  2  0
 11 48  1  0
 48 49  2  0
  5 50  1  0
 50 51  1  0
 50 52  2  0
 52  2  1  0
 49  8  1  0
 47 12  1  0
 44 18  1  0
 43 25  1  0
 40 35  1  0
M  END
> <Identifier>
Drug_8

> <Carcinogen>
1

$$$$

     RDKit          2D

 56 61  0  0  0  0  0  0  0  0999 V2000
  -10.4929   -3.4586    0.0000 N   0  0  0  0  0  0  0  0  0  0  0  0
  -11.0105   -2.0508    0.0000 C   0  0  0  0  0  0  0  0  0  0  0  0
  -12.4886   -1.7952    0.0000 C   0  0  0  0  0  0  0  0  0  0  0  0
  -13.0062   -0.3873    0.0000 C   0  0  0  0  0  0  0  0  0  0  0  0
  -14.4843   -0.1317    0.0000 S   0  0  0  0  0  0  0  0  0  0  0  0
  -14.2287    1.3464    0.0000 O   0  0  0  0  0  0  0  0  0  0  0  0
  -14.7399   -1.6098    0.0000 O   0  0  0  0  0  0  0  0  0  0  0  0
  -15.9624    0.1239    0.0000 O   0  0  0  0  0  0  0  0  0  0  0  0
  -12.0458    0.7649    0.0000 C   0  0  0  0  0  0  0  0  0  0  0  0
  -10.5678    0.5093    0.0000 C   0  0  0  0  0  0  0  0  0  0  0  0
   -9.6074    1.6615    0.0000 C   0  0  0  0  0  0  0  0  0  0  0  0
   -8.1293    1.4059    0.0000 C   0  0  0  0  0  0  0  0  0  0  0  0
   -7.1689    2.5581    0.0000 S   0  0  0  0  0  0  0  0  0  0  0  0
   -8.3212    3.5185    0.0000 O   0  0  0  0  0  0  0  0  0  0  0  0
   -6.0167    1.5977    0.0000 O   0  0  0  0  0  0  0  0  0  0  0  0
   -6.2085    3.7104    0.0000 O   0  0  0  0  0  0  0  0  0  0  0  0
   -7.6117   -0.0019    0.0000 C   0  0  0  0  0  0  0  0  0  0  0  0
   -6.1336   -0.2576    0.0000 N   0  0  0  0  0  0  0  0  0  0  0  0
   -5.1732    0.8947    0.0000 N   0  0  0  0  0  0  0  0  0  0  0  0
   -3.6951    0.6390    0.0000 C   0  0  0  0  0  0  0  0  0  0  0  0
   -3.1775   -0.7688    0.0000 C   0  0  0  0  0  0  0  0  0  0  0  0
   -1.6994   -1.0244    0.0000 C   0  0  0  0  0  0  0  0  0  0  0  0
   -0.7390    0.1278    0.0000 C   0  0  0  0  0  0  0  0  0  0  0  0
    0.7390   -0.1278    0.0000 C   0  0  0  0  0  0  0  0  0  0  0  0
    1.2567   -1.5357    0.0000 C   0  0  0  0  0  0  0  0  0  0  0  0
    2.7347   -1.7913    0.0000 C   0  0  0  0  0  0  0  0  0  0  0  0
    3.6951   -0.6390    0.0000 C   0  0  0  0  0  0  0  0  0  0  0  0
    5.1732   -0.8947    0.0000 N   0  0  0  0  0  0  0  0  0  0  0  0
    6.1336    0.2576    0.0000 N   0  0  0  0  0  0  0  0  0  0  0  0
    7.6117    0.0019    0.0000 C   0  0  0  0  0  0  0  0  0  0  0  0
    8.1293   -1.4059    0.0000 C   0  0  0  0  0  0  0  0  0  0  0  0
    7.1689   -2.5581    0.0000 S   0  0  0  0  0  0  0  0  0  0  0  0
    8.3212   -3.5185    0.0000 O   0  0  0  0  0  0  0  0  0  0  0  0
    6.0167   -1.5977    0.0000 O   0  0  0  0  0  0  0  0  0  0  0  0
    6.2085   -3.7104    0.0000 O   0  0  0  0  0  0  0  0  0  0  0  0
    9.6074   -1.6615    0.0000 C   0  0  0  0  0  0  0  0  0  0  0  0
   10.5678   -0.5093    0.0000 C   0  0  0  0  0  0  0  0  0  0  0  0
   12.0458   -0.7649    0.0000 C   0  0  0  0  0  0  0  0  0  0  0  0
   13.0062    0.3873    0.0000 C   0  0  0  0  0  0  0  0  0  0  0  0
   14.4843    0.1317    0.0000 S   0  0  0  0  0  0  0  0  0  0  0  0
   14.2287   -1.3464    0.0000 O   0  0  0  0  0  0  0  0  0  0  0  0
   14.7399    1.6098    0.0000 O   0  0  0  0  0  0  0  0  0  0  0  0
   15.9624   -0.1239    0.0000 O   0  0  0  0  0  0  0  0  0  0  0  0
   12.4886    1.7952    0.0000 C   0  0  0  0  0  0  0  0  0  0  0  0
   11.0105    2.0508    0.0000 C   0  0  0  0  0  0  0  0  0  0  0  0
   10.4929    3.4586    0.0000 N   0  0  0  0  0  0  0  0  0  0  0  0
   10.0501    0.8986    0.0000 C   0  0  0  0  0  0  0  0  0  0  0  0
    8.5721    1.1542    0.0000 C   0  0  0  0  0  0  0  0  0  0  0  0
    8.0544    2.5620    0.0000 O   0  0  0  0  0  0  0  0  0  0  0  0
    3.1775    0.7688    0.0000 C   0  0  0  0  0  0  0  0  0  0  0  0
    1.6994    1.0244    0.0000 C   0  0  0  0  0  0  0  0  0  0  0  0
   -1.2567    1.5357    0.0000 C   0  0  0  0  0  0  0  0  0  0  0  0
   -2.7347    1.7913    0.0000 C   0  0  0  0  0  0  0  0  0  0  0  0
   -8.5721   -1.1542    0.0000 C   0  0  0  0  0  0  0  0  0  0  0  0
   -8.0544   -2.5620    0.0000 O   0  0  0  0  0  0  0  0  0  0  0  0
  -10.0501   -0.8986    0.0000 C   0  0  0  0  0  0  0  0  0  0  0  0
  1  2  1  0
  2  3  2  0
  3  4  1  0
  4  5  1  0
  5  6  2  0
  5  7  2  0
  5  8  1  0
  4  9  2  0
  9 10  1  0
 10 11  2  0
 11 12  1  0
 12 13  1  0
 13 14  2  0
 13 15  2  0
 13 16  1  0
 12 17  2  0
 17 18  1  0
 18 19  2  0
 19 20  1  0
 20 21  2  0
 21 22  1  0
 22 23  2  0
 23 24  1  0
 24 25  2  0
 25 26  1  0
 26 27  2  0
 27 28  1  0
 28 29  2  0
 29 30  1  0
 30 31  2  0
 31 32  1  0
 32 33  2  0
 32 34  2  0
 32 35  1  0
 31 36  1  0
 36 37  2  0
 37 38  1  0
 38 39  2  0
 39 40  1  0
 40 41  2  0
 40 42  2  0
 40 43  1  0
 39 44  1  0
 44 45  2  0
 45 46  1  0
 45 47  1  0
 47 48  2  0
 48 49  1  0
 27 50  1  0
 50 51  2  0
 23 52  1  0
 52 53  2  0
 17 54  1  0
 54 55  1  0
 54 56  2  0
 56  2  1  0
 56 10  1  0
 53 20  1  0
 51 24  1  0
 48 30  1  0
 47 37  1  0
M  END
> <Identifier>
Drug_9

> <Carcinogen>
1

$$$$

     RDKit          2D

 24 26  0  0  0  0  0  0  0  0999 V2000
   -2.8246   -3.1105    0.0000 C   0  0  0  0  0  0  0  0  0  0  0  0
   -3.1908   -1.6558    0.0000 C   0  0  0  0  0  0  0  0  0  0  0  0
   -4.5992   -2.1721    0.0000 C   0  0  0  0  0  0  0  0  0  0  0  0
   -1.7059   -1.4437    0.0000 S   0  0  0  0  0  0  0  0  0  0  0  0
   -1.4488    0.0341    0.0000 C   0  0  0  0  0  0  0  0  0  0  0  0
   -0.7476    1.3601    0.0000 C   0  0  0  0  0  0  0  0  0  0  0  0
    0.6859    1.8019    0.0000 N   0  0  0  0  0  0  0  0  0  0  0  0
    1.7852    0.7814    0.0000 C   0  0  0  0  0  0  0  0  0  0  0  0
    1.4511   -0.6809    0.0000 O   0  0  0  0  0  0  0  0  0  0  0  0
    3.2187    1.2232    0.0000 C   0  0  0  0  0  0  0  0  0  0  0  0
    3.5528    2.6856    0.0000 N   0  0  0  0  0  0  0  0  0  0  0  0
    4.3180    0.2027    0.0000 C   0  0  0  0  0  0  0  0  0  0  0  0
    3.9839   -1.2596    0.0000 C   0  0  0  0  0  0  0  0  0  0  0  0
    5.0833   -2.2801    0.0000 C   0  0  0  0  0  0  0  0  0  0  0  0
    6.5167   -1.8383    0.0000 C   0  0  0  0  0  0  0  0  0  0  0  0
    6.8508   -0.3759    0.0000 C   0  0  0  0  0  0  0  0  0  0  0  0
    5.7515    0.6446    0.0000 C   0  0  0  0  0  0  0  0  0  0  0  0
   -2.0736    2.0613    0.0000 C   0  0  0  0  0  0  0  0  0  0  0  0
   -2.5154    3.4948    0.0000 O   0  0  0  0  0  0  0  0  0  0  0  0
   -2.7748    0.7353    0.0000 N   0  0  0  0  0  0  0  0  0  0  0  0
   -3.8515   -0.3091    0.0000 C   0  0  0  0  0  0  0  0  0  0  0  0
   -5.3293   -0.0520    0.0000 C   0  0  0  0  0  0  0  0  0  0  0  0
   -6.2908   -1.2033    0.0000 O   0  0  0  0  0  0  0  0  0  0  0  0
   -5.8455    1.3563    0.0000 O   0  0  0  0  0  0  0  0  0  0  0  0
  1  2  1  0
  2  3  1  0
  2  4  1  0
  4  5  1  0
  5  6  1  0
  6  7  1  0
  7  8  1  0
  8  9  2  0
  8 10  1  0
 10 11  1  6
 10 12  1  0
 12 13  2  0
 13 14  1  0
 14 15  2  0
 15 16  1  0
 16 17  2  0
  6 18  1  0
 18 19  2  0
 18 20  1  0
 20 21  1  0
 21 22  1  1
 22 23  2  0
 22 24  1  0
 21  2  1  0
 20  5  1  0
 17 12  1  0
M  END
> <Identifier>
Drug_10

> <Carcinogen>
1

$$$$

     RDKit          2D

 22 24  0  0  0  0  0  0  0  0999 V2000
    6.0000    0.0000    0.0000 N   0  0  0  0  0  0  0  0  0  0  0  0
    4.5000   -0.0000    0.0000 C   0  0  0  0  0  0  0  0  0  0  0  0
    3.7500   -1.2990    0.0000 C   0  0  0  0  0  0  0  0  0  0  0  0
    2.2500   -1.2990    0.0000 C   0  0  0  0  0  0  0  0  0  0  0  0
    1.5000    0.0000    0.0000 C   0  0  0  0  0  0  0  0  0  0  0  0
    0.0000    0.0000    0.0000 C   0  0  0  0  0  0  0  0  0  0  0  0
   -0.7500    1.2990    0.0000 C   0  0  0  0  0  0  0  0  0  0  0  0
    0.0000    2.5981    0.0000 C   0  0  0  0  0  0  0  0  0  0  0  0
   -0.7500    3.8971    0.0000 C   0  0  0  0  0  0  0  0  0  0  0  0
   -2.2500    3.8971    0.0000 C   0  0  0  0  0  0  0  0  0  0  0  0
   -3.0000    5.1962    0.0000 N   0  0  0  0  0  0  0  0  0  0  0  0
   -3.0000    2.5981    0.0000 C   0  0  0  0  0  0  0  0  0  0  0  0
   -2.2500    1.2990    0.0000 C   0  0  0  0  0  0  0  0  0  0  0  0
   -0.7500   -1.2990    0.0000 C   0  0  0  0  0  0  0  0  0  0  0  0
   -2.2500   -1.2990    0.0000 C   0  0  0  0  0  0  0  0  0  0  0  0
   -3.0000   -2.5981    0.0000 C   0  0  0  0  0  0  0  0  0  0  0  0
   -2.2500   -3.8971    0.0000 C   0  0  0  0  0  0  0  0  0  0  0  0
   -3.0000   -5.1962    0.0000 N   0  0  0  0  0  0  0  0  0  0  0  0
   -0.7500   -3.8971    0.0000 C   0  0  0  0  0  0  0  0  0  0  0  0
    0.0000   -2.5981    0.0000 C   0  0  0  0  0  0  0  0  0  0  0  0
    2.2500    1.2990    0.0000 C   0  0  0  0  0  0  0  0  0  0  0  0
    3.7500    1.2990    0.0000 C   0  0  0  0  0  0  0  0  0  0  0  0
  1  2  2  0
  2  3  1  0
  3  4  2  0
  4  5  1  0
  5  6  2  0
  6  7  1  0
  7  8  2  0
  8  9  1  0
  9 10  2  0
 10 11  1  0
 10 12  1  0
 12 13  2  0
  6 14  1  0
 14 15  2  0
 15 16  1  0
 16 17  2  0
 17 18  1  0
 17 19  1  0
 19 20  2  0
  5 21  1  0
 21 22  2  0
 22  2  1  0
 13  7  1  0
 20 14  1  0
M  END
> <Identifier>
Drug_11

> <Carcinogen>
1

$$$$

     RDKit          2D

  5  4  0  0  0  0  0  0  0  0999 V2000
   -2.4491   -0.1784    0.0000 O   0  0  0  0  0  0  0  0  0  0  0  0
   -0.9639   -0.3884    0.0000 C   0  0  0  0  0  0  0  0  0  0  0  0
   -0.0394    0.7927    0.0000 C   0  0  0  0  0  0  0  0  0  0  0  0
    1.4459    0.5827    0.0000 C   0  0  0  0  0  0  0  0  0  0  0  0
    2.0065   -0.8086    0.0000 O   0  0  0  0  0  0  0  0  0  0  0  0
  1  2  2  0
  2  3  1  0
  3  4  2  0
  4  5  1  0
M  END
> <Identifier>
Drug_12

> <Carcinogen>
1

$$$$

     RDKit          2D

 15 15  0  0  0  0  0  0  0  0999 V2000
   -3.2857    1.5327    0.0000 C   0  0  0  0  0  0  0  0  0  0  0  0
   -2.2310    0.4660    0.0000 C   0  0  0  0  0  0  0  0  0  0  0  0
   -1.1644    1.5206    0.0000 N   0  0  0  0  0  0  0  0  0  0  0  0
   -1.1764   -0.6006    0.0000 C   0  0  0  0  0  0  0  0  0  0  0  0
    0.2747   -0.2206    0.0000 C   0  0  0  0  0  0  0  0  0  0  0  0
    0.6711    1.2260    0.0000 C   0  0  0  0  0  0  0  0  0  0  0  0
    2.1222    1.6061    0.0000 C   0  0  0  0  0  0  0  0  0  0  0  0
    3.1768    0.5394    0.0000 C   0  0  0  0  0  0  0  0  0  0  0  0
    4.6279    0.9194    0.0000 O   0  0  0  0  0  0  0  0  0  0  0  0
    2.7804   -0.9073    0.0000 C   0  0  0  0  0  0  0  0  0  0  0  0
    3.8350   -1.9739    0.0000 O   0  0  0  0  0  0  0  0  0  0  0  0
    1.3293   -1.2873    0.0000 C   0  0  0  0  0  0  0  0  0  0  0  0
   -3.2977   -0.5886    0.0000 C   0  0  0  0  0  0  0  0  0  0  0  0
   -2.9177   -2.0397    0.0000 O   0  0  0  0  0  0  0  0  0  0  0  0
   -4.7444   -0.1922    0.0000 O   0  0  0  0  0  0  0  0  0  0  0  0
  2  1  1  6
  2  3  1  0
  2  4  1  0
  4  5  1  0
  5  6  2  0
  6  7  1  0
  7  8  2  0
  8  9  1  0
  8 10  1  0
 10 11  1  0
 10 12  2  0
  2 13  1  0
 13 14  2  0
 13 15  1  0
 12  5  1  0
M  END
> <Identifier>
Drug_13

> <Carcinogen>
1

$$$$

     RDKit          2D

  5  4  0  0  0  0  0  0  0  0999 V2000
   -2.5981   -0.3000    0.0000 C   0  0  0  0  0  0  0  0  0  0  0  0
   -1.2990    0.4500    0.0000 C   0  0  0  0  0  0  0  0  0  0  0  0
    0.0000   -0.3000    0.0000 C   0  0  0  0  0  0  0  0  0  0  0  0
    1.2990    0.4500    0.0000 N   0  0  0  0  0  0  0  0  0  0  0  0
    2.5981   -0.3000    0.0000 N   0  0  0  0  0  0  0  0  0  0  0  0
  1  2  2  0
  2  3  1  0
  3  4  1  0
  4  5  1  0
M  END
> <Identifier>
Drug_14

> <Carcinogen>
1

$$$$

     RDKit          2D

 39 41  0  0  0  0  0  0  0  0999 V2000
   -4.3355   -4.9479    0.0000 C   0  0  0  0  0  0  0  0  0  0  0  0
   -2.8357   -4.9707    0.0000 C   0  0  0  0  0  0  0  0  0  0  0  0
   -2.0660   -3.6832    0.0000 C   0  0  0  0  0  0  0  0  0  0  0  0
   -3.1787   -2.6772    0.0000 N   0  0  0  0  0  0  0  0  0  0  0  0
   -3.8216   -1.3219    0.0000 C   0  0  0  0  0  0  0  0  0  0  0  0
   -5.2762   -1.6881    0.0000 O   0  0  0  0  0  0  0  0  0  0  0  0
   -3.8970    0.1762    0.0000 C   0  0  0  0  0  0  0  0  0  0  0  0
   -5.3964    0.2186    0.0000 C   0  0  0  0  0  0  0  0  0  0  0  0
   -6.3120   -0.9695    0.0000 Cl  0  0  0  0  0  0  0  0  0  0  0  0
   -5.8194    1.6577    0.0000 C   0  0  0  0  0  0  0  0  0  0  0  0
   -7.2323    2.1614    0.0000 Cl  0  0  0  0  0  0  0  0  0  0  0  0
   -4.5814    2.5047    0.0000 C   0  0  0  0  0  0  0  0  0  0  0  0
   -3.3933    1.5891    0.0000 N   0  0  0  0  0  0  0  0  0  0  0  0
   -2.3873    2.7017    0.0000 C   0  0  0  0  0  0  0  0  0  0  0  0
   -3.2822    3.9055    0.0000 O   0  0  0  0  0  0  0  0  0  0  0  0
   -1.0321    3.3446    0.0000 C   0  0  0  0  0  0  0  0  0  0  0  0
   -1.3982    4.7993    0.0000 C   0  0  0  0  0  0  0  0  0  0  0  0
   -0.3216    5.8437    0.0000 C   0  0  0  0  0  0  0  0  0  0  0  0
   -2.8411    5.2094    0.0000 O   0  0  0  0  0  0  0  0  0  0  0  0
    0.4661    3.4200    0.0000 N   0  0  0  0  0  0  0  0  0  0  0  0
    1.8790    2.9163    0.0000 C   0  0  0  0  0  0  0  0  0  0  0  0
    2.6486    4.2038    0.0000 O   0  0  0  0  0  0  0  0  0  0  0  0
    2.9916    1.9103    0.0000 C   0  0  0  0  0  0  0  0  0  0  0  0
    3.6345    0.5551    0.0000 C   0  0  0  0  0  0  0  0  0  0  0  0
    5.0891    0.9213    0.0000 C   0  0  0  0  0  0  0  0  0  0  0  0
    6.1336   -0.1554    0.0000 C   0  0  0  0  0  0  0  0  0  0  0  0
    7.5882    0.2108    0.0000 C   0  0  0  0  0  0  0  0  0  0  0  0
    7.9984    1.6537    0.0000 C   0  0  0  0  0  0  0  0  0  0  0  0
    6.9539    2.7303    0.0000 C   0  0  0  0  0  0  0  0  0  0  0  0
    5.4993    2.3641    0.0000 C   0  0  0  0  0  0  0  0  0  0  0  0
    3.7099   -0.9430    0.0000 N   0  0  0  0  0  0  0  0  0  0  0  0
    3.2062   -2.3559    0.0000 C   0  0  0  0  0  0  0  0  0  0  0  0
    4.4937   -3.1256    0.0000 O   0  0  0  0  0  0  0  0  0  0  0  0
    2.2002   -3.4685    0.0000 C   0  0  0  0  0  0  0  0  0  0  0  0
    3.0952   -4.6723    0.0000 C   0  0  0  0  0  0  0  0  0  0  0  0
    2.5002   -6.0492    0.0000 O   0  0  0  0  0  0  0  0  0  0  0  0
    0.8450   -4.1115    0.0000 N   0  0  0  0  0  0  0  0  0  0  0  0
   -0.6531   -4.1868    0.0000 C   0  0  0  0  0  0  0  0  0  0  0  0
   -0.8715   -5.6709    0.0000 O   0  0  0  0  0  0  0  0  0  0  0  0
  1  2  1  0
  2  3  1  0
  3  4  1  0
  4  5  1  0
  5  6  2  0
  5  7  1  0
  7  8  1  0
  8  9  1  0
  8 10  1  0
 10 11  1  0
 10 12  1  0
 12 13  1  0
 13 14  1  0
 14 15  2  0
 14 16  1  0
 16 17  1  0
 17 18  1  0
 17 19  1  0
 16 20  1  0
 20 21  1  0
 21 22  2  0
 21 23  1  0
 23 24  1  0
 24 25  1  0
 25 26  2  0
 26 27  1  0
 27 28  2  0
 28 29  1  0
 29 30  2  0
 24 31  1  0
 31 32  1  0
 32 33  2  0
 32 34  1  0
 34 35  1  0
 35 36  1  0
 34 37  1  0
 37 38  1  0
 38 39  2  0
 38  3  1  0
 13  7  1  0
 30 25  1  0
M  END
> <Identifier>
Drug_15

> <Carcinogen>
1

$$$$

     RDKit          2D

 10  9  0  0  0  0  0  0  0  0999 V2000
   -5.8514   -0.2717    0.0000 C   0  0  0  0  0  0  0  0  0  0  0  0
   -4.5393    0.4553    0.0000 C   0  0  0  0  0  0  0  0  0  0  0  0
   -3.2537   -0.3176    0.0000 C   0  0  0  0  0  0  0  0  0  0  0  0
   -1.9416    0.4094    0.0000 C   0  0  0  0  0  0  0  0  0  0  0  0
   -0.6560   -0.3635    0.0000 N   0  0  0  0  0  0  0  0  0  0  0  0
    0.6560    0.3635    0.0000 N   0  0  0  0  0  0  0  0  0  0  0  0
    1.9416   -0.4094    0.0000 C   0  0  0  0  0  0  0  0  0  0  0  0
    3.2537    0.3176    0.0000 C   0  0  0  0  0  0  0  0  0  0  0  0
    4.5393   -0.4553    0.0000 C   0  0  0  0  0  0  0  0  0  0  0  0
    5.8514    0.2717    0.0000 C   0  0  0  0  0  0  0  0  0  0  0  0
  1  2  1  0
  2  3  1  0
  3  4  1  0
  4  5  1  0
  5  6  1  0
  6  7  1  0
  7  8  1  0
  8  9  1  0
  9 10  1  0
M  END
> <Identifier>
Drug_16

> <Carcinogen>
1

$$$$

     RDKit          2D

  6  5  0  0  0  0  0  0  0  0999 V2000
   -3.2624   -0.2097    0.0000 C   0  0  0  0  0  0  0  0  0  0  0  0
   -1.9270    0.4734    0.0000 C   0  0  0  0  0  0  0  0  0  0  0  0
   -0.6677   -0.3416    0.0000 C   0  0  0  0  0  0  0  0  0  0  0  0
    0.6677    0.3416    0.0000 C   0  0  0  0  0  0  0  0  0  0  0  0
    1.9270   -0.4734    0.0000 N   0  0  0  0  0  0  0  0  0  0  0  0
    3.2624    0.2097    0.0000 N   0  0  0  0  0  0  0  0  0  0  0  0
  1  2  1  0
  2  3  1  0
  3  4  1  0
  4  5  1  0
  5  6  1  0
M  END
> <Identifier>
Drug_17

> <Carcinogen>
1

$$$$

     RDKit          2D

 50 54  0  0  0  0  0  0  0  0999 V2000
   -8.3274    0.1265    0.0000 C   0  0  0  0  0  0  0  0  0  0  0  0
   -8.1609   -1.3643    0.0000 C   0  0  0  0  0  0  0  0  0  0  0  0
   -6.7866   -1.9654    0.0000 N   0  0  0  0  0  0  0  0  0  0  0  0
   -6.6201   -3.4562    0.0000 C   0  0  0  0  0  0  0  0  0  0  0  0
   -5.2459   -4.0573    0.0000 C   0  0  0  0  0  0  0  0  0  0  0  0
   -5.0794   -5.5481    0.0000 C   0  0  0  0  0  0  0  0  0  0  0  0
   -3.7051   -6.1493    0.0000 C   0  0  0  0  0  0  0  0  0  0  0  0
   -2.4973   -5.2597    0.0000 C   0  0  0  0  0  0  0  0  0  0  0  0
   -2.6638   -3.7690    0.0000 C   0  0  0  0  0  0  0  0  0  0  0  0
   -1.4561   -2.8794    0.0000 S   0  0  0  0  0  0  0  0  0  0  0  0
   -0.5665   -4.0872    0.0000 O   0  0  0  0  0  0  0  0  0  0  0  0
   -2.3456   -1.6717    0.0000 O   0  0  0  0  0  0  0  0  0  0  0  0
   -0.2483   -1.9899    0.0000 O   0  0  0  0  0  0  0  0  0  0  0  0
   -4.0381   -3.1678    0.0000 C   0  0  0  0  0  0  0  0  0  0  0  0
   -5.5789   -1.0759    0.0000 C   0  0  0  0  0  0  0  0  0  0  0  0
   -4.2046   -1.6771    0.0000 C   0  0  0  0  0  0  0  0  0  0  0  0
   -2.9968   -0.7875    0.0000 C   0  0  0  0  0  0  0  0  0  0  0  0
   -3.1633    0.7032    0.0000 C   0  0  0  0  0  0  0  0  0  0  0  0
   -1.9556    1.5928    0.0000 C   0  0  0  0  0  0  0  0  0  0  0  0
   -0.5813    0.9916    0.0000 C   0  0  0  0  0  0  0  0  0  0  0  0
   -0.4148   -0.4991    0.0000 C   0  0  0  0  0  0  0  0  0  0  0  0
    0.9594   -1.1003    0.0000 C   0  0  0  0  0  0  0  0  0  0  0  0
    2.1672   -0.2107    0.0000 C   0  0  0  0  0  0  0  0  0  0  0  0
    3.5415   -0.8119    0.0000 N   0  0  0  0  0  4  0  0  0  0  0  0
    3.7080   -2.3027    0.0000 C   0  0  0  0  0  0  0  0  0  0  0  0
    5.0822   -2.9038    0.0000 C   0  0  0  0  0  0  0  0  0  0  0  0
    4.7492    0.0776    0.0000 C   0  0  0  0  0  0  0  0  0  0  0  0
    6.1235   -0.5235    0.0000 C   0  0  0  0  0  0  0  0  0  0  0  0
    6.2900   -2.0143    0.0000 C   0  0  0  0  0  0  0  0  0  0  0  0
    7.6642   -2.6154    0.0000 C   0  0  0  0  0  0  0  0  0  0  0  0
    8.8720   -1.7259    0.0000 C   0  0  0  0  0  0  0  0  0  0  0  0
    8.7055   -0.2352    0.0000 C   0  0  0  0  0  0  0  0  0  0  0  0
    9.9133    0.6544    0.0000 S   0  0  0  0  0  0  0  0  0  0  0  0
   10.8028   -0.5534    0.0000 O   0  0  0  0  0  0  0  0  0  0  0  0
    9.0237    1.8622    0.0000 O   0  0  0  0  0  0  0  0  0  0  0  0
   11.1210    1.5439    0.0000 O   0  0  0  0  0  1  0  0  0  0  0  0
    7.3313    0.3660    0.0000 C   0  0  0  0  0  0  0  0  0  0  0  0
    2.0007    1.2800    0.0000 C   0  0  0  0  0  0  0  0  0  0  0  0
    0.6265    1.8812    0.0000 C   0  0  0  0  0  0  0  0  0  0  0  0
   -2.1221    3.0835    0.0000 C   0  0  0  0  0  0  0  0  0  0  0  0
   -0.9143    3.9731    0.0000 C   0  0  0  0  0  0  0  0  0  0  0  0
   -1.0808    5.4638    0.0000 C   0  0  0  0  0  0  0  0  0  0  0  0
   -2.4551    6.0650    0.0000 C   0  0  0  0  0  0  0  0  0  0  0  0
   -2.6216    7.5557    0.0000 N   0  0  0  0  0  0  0  0  0  0  0  0
   -1.4138    8.4453    0.0000 C   0  0  0  0  0  0  0  0  0  0  0  0
   -3.9958    8.1569    0.0000 C   0  0  0  0  0  0  0  0  0  0  0  0
   -3.6628    5.1754    0.0000 C   0  0  0  0  0  0  0  0  0  0  0  0
   -3.4963    3.6847    0.0000 C   0  0  0  0  0  0  0  0  0  0  0  0
   -4.5376    1.3044    0.0000 C   0  0  0  0  0  0  0  0  0  0  0  0
   -5.7454    0.4148    0.0000 C   0  0  0  0  0  0  0  0  0  0  0  0
  1  2  1  0
  2  3  1  0
  3  4  1  0
  4  5  1  0
  5  6  2  0
  6  7  1  0
  7  8  2  0
  8  9  1  0
  9 10  1  0
 10 11  2  0
 10 12  2  0
 10 13  1  0
  9 14  2  0
  3 15  1  0
 15 16  2  0
 16 17  1  0
 17 18  2  0
 18 19  1  0
 19 20  2  0
 20 21  1  0
 21 22  2  0
 22 23  1  0
 23 24  2  0
 24 25  1  0
 25 26  1  0
 24 27  1  0
 27 28  1  0
 28 29  2  0
 29 30  1  0
 30 31  2  0
 31 32  1  0
 32 33  1  0
 33 34  2  0
 33 35  2  0
 33 36  1  0
 32 37  2  0
 23 38  1  0
 38 39  2  0
 19 40  1  0
 40 41  2  0
 41 42  1  0
 42 43  2  0
 43 44  1  0
 44 45  1  0
 44 46  1  0
 43 47  1  0
 47 48  2  0
 18 49  1  0
 49 50  2  0
 14  5  1  0
 50 15  1  0
 39 20  1  0
 48 40  1  0
 37 28  1  0
M  CHG  2  24   1  36  -1
M  END
> <Identifier>
Drug_18

> <Carcinogen>
1

$$$$

     RDKit          2D

 29 31  0  0  0  0  0  0  0  0999 V2000
   -7.3380    1.4543    0.0000 C   0  0  0  0  0  0  0  0  0  0  0  0
   -5.8801    1.1012    0.0000 C   0  0  0  0  0  0  0  0  0  0  0  0
   -4.8455    2.1873    0.0000 C   0  0  0  0  0  0  0  0  0  0  0  0
   -3.3876    1.8343    0.0000 C   0  0  0  0  0  0  0  0  0  0  0  0
   -2.3529    2.9203    0.0000 C   0  0  0  0  0  0  0  0  0  0  0  0
   -2.9644    0.3952    0.0000 C   0  0  0  0  0  0  0  0  0  0  0  0
   -1.5065    0.0422    0.0000 N   0  0  0  0  0  0  0  0  0  0  0  0
   -0.4719    1.1282    0.0000 N   0  0  0  0  0  0  0  0  0  0  0  0
    0.9860    0.7752    0.0000 C   0  0  0  0  0  0  0  0  0  0  0  0
    1.4092   -0.6639    0.0000 C   0  0  0  0  0  0  0  0  0  0  0  0
    2.8671   -1.0169    0.0000 C   0  0  0  0  0  0  0  0  0  0  0  0
    3.2903   -2.4559    0.0000 S   0  0  0  0  0  0  0  0  0  0  0  0
    1.8512   -2.8791    0.0000 O   0  0  0  0  0  0  0  0  0  0  0  0
    4.7293   -2.0327    0.0000 O   0  0  0  0  0  0  0  0  0  0  0  0
    3.7135   -3.8950    0.0000 O   0  0  0  0  0  0  0  0  0  0  0  0
    3.9017    0.0692    0.0000 C   0  0  0  0  0  0  0  0  0  0  0  0
    5.3596   -0.2839    0.0000 C   0  0  0  0  0  0  0  0  0  0  0  0
    6.3943    0.8022    0.0000 C   0  0  0  0  0  0  0  0  0  0  0  0
    5.9710    2.2412    0.0000 C   0  0  0  0  0  0  0  0  0  0  0  0
    4.5132    2.5943    0.0000 C   0  0  0  0  0  0  0  0  0  0  0  0
    3.4785    1.5082    0.0000 C   0  0  0  0  0  0  0  0  0  0  0  0
    2.0207    1.8612    0.0000 C   0  0  0  0  0  0  0  0  0  0  0  0
    1.5974    3.3003    0.0000 O   0  0  0  0  0  0  0  0  0  0  0  0
   -3.9991   -0.6908    0.0000 C   0  0  0  0  0  0  0  0  0  0  0  0
   -3.5758   -2.1299    0.0000 S   0  0  0  0  0  0  0  0  0  0  0  0
   -5.0149   -2.5531    0.0000 O   0  0  0  0  0  0  0  0  0  0  0  0
   -2.1368   -1.7067    0.0000 O   0  0  0  0  0  0  0  0  0  0  0  0
   -3.1526   -3.5690    0.0000 O   0  0  0  0  0  0  0  0  0  0  0  0
   -5.4569   -0.3378    0.0000 C   0  0  0  0  0  0  0  0  0  0  0  0
  1  2  1  0
  2  3  2  0
  3  4  1  0
  4  5  1  0
  4  6  2  0
  6  7  1  0
  7  8  2  0
  8  9  1  0
  9 10  2  0
 10 11  1  0
 11 12  1  0
 12 13  2  0
 12 14  2  0
 12 15  1  0
 11 16  2  0
 16 17  1  0
 17 18  2  0
 18 19  1  0
 19 20  2  0
 20 21  1  0
 21 22  2  0
 22 23  1  0
  6 24  1  0
 24 25  1  0
 25 26  2  0
 25 27  2  0
 25 28  1  0
 24 29  2  0
 29  2  1  0
 22  9  1  0
 21 16  1  0
M  END
> <Identifier>
Drug_19

> <Carcinogen>
1

$$$$

     RDKit          2D

 35 38  0  0  0  0  0  0  0  0999 V2000
    5.6521   -4.1633    0.0000 O   0  0  0  0  0  0  0  0  0  0  0  0
    6.4672   -2.9041    0.0000 S   0  0  0  0  0  0  0  0  0  0  0  0
    7.2823   -1.6449    0.0000 O   0  0  0  0  0  0  0  0  0  0  0  0
    7.7264   -3.7192    0.0000 O   0  0  0  0  0  0  0  0  0  0  0  0
    5.2080   -2.0890    0.0000 C   0  0  0  0  0  0  0  0  0  0  0  0
    3.8725   -2.7719    0.0000 C   0  0  0  0  0  0  0  0  0  0  0  0
    2.6133   -1.9569    0.0000 C   0  0  0  0  0  0  0  0  0  0  0  0
    2.6896   -0.4588    0.0000 C   0  0  0  0  0  0  0  0  0  0  0  0
    1.4304    0.3563    0.0000 C   0  0  0  0  0  0  0  0  0  0  0  0
    0.0949   -0.3267    0.0000 N   0  0  0  0  0  0  0  0  0  0  0  0
   -1.1644    0.4884    0.0000 N   0  0  0  0  0  0  0  0  0  0  0  0
   -2.4999   -0.1946    0.0000 C   0  0  0  0  0  0  0  0  0  0  0  0
   -2.5761   -1.6926    0.0000 C   0  0  0  0  0  0  0  0  0  0  0  0
   -3.9116   -2.3756    0.0000 C   0  0  0  0  0  0  0  0  0  0  0  0
   -5.1709   -1.5605    0.0000 C   0  0  0  0  0  0  0  0  0  0  0  0
   -6.5064   -2.2435    0.0000 S   0  0  0  0  0  0  0  0  0  0  0  0
   -5.8234   -3.5790    0.0000 O   0  0  0  0  0  0  0  0  0  0  0  0
   -7.1893   -0.9080    0.0000 O   0  0  0  0  0  0  0  0  0  0  0  0
   -7.8418   -2.9264    0.0000 O   0  0  0  0  0  0  0  0  0  0  0  0
   -5.0946   -0.0624    0.0000 C   0  0  0  0  0  0  0  0  0  0  0  0
   -6.3538    0.7527    0.0000 C   0  0  0  0  0  0  0  0  0  0  0  0
   -6.2775    2.2507    0.0000 C   0  0  0  0  0  0  0  0  0  0  0  0
   -4.9420    2.9337    0.0000 C   0  0  0  0  0  0  0  0  0  0  0  0
   -3.6828    2.1186    0.0000 C   0  0  0  0  0  0  0  0  0  0  0  0
   -3.7591    0.6205    0.0000 C   0  0  0  0  0  0  0  0  0  0  0  0
    1.5066    1.8544    0.0000 C   0  0  0  0  0  0  0  0  0  0  0  0
    0.2474    2.6694    0.0000 O   0  0  0  0  0  0  0  0  0  0  0  0
    2.8421    2.5373    0.0000 C   0  0  0  0  0  0  0  0  0  0  0  0
    2.9184    4.0354    0.0000 S   0  0  0  0  0  0  0  0  0  0  0  0
    4.4165    3.9591    0.0000 O   0  0  0  0  0  0  0  0  0  0  0  0
    1.4204    4.1117    0.0000 O   0  0  0  0  0  0  0  0  0  0  0  0
    2.9947    5.5334    0.0000 O   0  0  0  0  0  0  0  0  0  0  0  0
    4.1013    1.7222    0.0000 C   0  0  0  0  0  0  0  0  0  0  0  0
    4.0251    0.2242    0.0000 C   0  0  0  0  0  0  0  0  0  0  0  0
    5.2843   -0.5909    0.0000 C   0  0  0  0  0  0  0  0  0  0  0  0
  1  2  2  0
  2  3  2  0
  2  4  1  0
  2  5  1  0
  5  6  2  0
  6  7  1  0
  7  8  2  0
  8  9  1  0
  9 10  1  0
 10 11  2  0
 11 12  1  0
 12 13  2  0
 13 14  1  0
 14 15  2  0
 15 16  1  0
 16 17  2  0
 16 18  2  0
 16 19  1  0
 15 20  1  0
 20 21  2  0
 21 22  1  0
 22 23  2  0
 23 24  1  0
 24 25  2  0
  9 26  2  0
 26 27  1  0
 26 28  1  0
 28 29  1  0
 29 30  2  0
 29 31  2  0
 29 32  1  0
 28 33  2  0
 33 34  1  0
 34 35  2  0
 35  5  1  0
 34  8  1  0
 25 12  1  0
 25 20  1  0
M  END
> <Identifier>
Drug_20

> <Carcinogen>
1

$$$$

     RDKit          2D

 30 32  0  0  0  0  0  0  0  0999 V2000
   -7.5982    2.3533    0.0000 C   0  0  0  0  0  0  0  0  0  0  0  0
   -6.2801    1.6373    0.0000 C   0  0  0  0  0  0  0  0  0  0  0  0
   -5.0010    2.4208    0.0000 C   0  0  0  0  0  0  0  0  0  0  0  0
   -3.6829    1.7049    0.0000 C   0  0  0  0  0  0  0  0  0  0  0  0
   -2.4038    2.4884    0.0000 C   0  0  0  0  0  0  0  0  0  0  0  0
   -3.6439    0.2054    0.0000 C   0  0  0  0  0  0  0  0  0  0  0  0
   -2.3258   -0.5106    0.0000 N   0  0  0  0  0  0  0  0  0  0  0  0
   -1.0467    0.2729    0.0000 N   0  0  0  0  0  0  0  0  0  0  0  0
    0.2714   -0.4431    0.0000 C   0  0  0  0  0  0  0  0  0  0  0  0
    0.3104   -1.9426    0.0000 C   0  0  0  0  0  0  0  0  0  0  0  0
   -0.9687   -2.7261    0.0000 O   0  0  0  0  0  0  0  0  0  0  0  0
    1.6285   -2.6586    0.0000 C   0  0  0  0  0  0  0  0  0  0  0  0
    1.6675   -4.1581    0.0000 S   0  0  0  0  0  0  0  0  0  0  0  0
    3.1670   -4.1191    0.0000 O   0  0  0  0  0  0  0  0  0  0  0  0
    0.1680   -4.1971    0.0000 O   0  0  0  0  0  0  0  0  0  0  0  0
    1.7065   -5.6576    0.0000 O   0  0  0  0  0  0  0  0  0  0  0  0
    2.9076   -1.8751    0.0000 C   0  0  0  0  0  0  0  0  0  0  0  0
    2.8686   -0.3756    0.0000 C   0  0  0  0  0  0  0  0  0  0  0  0
    4.1477    0.4079    0.0000 C   0  0  0  0  0  0  0  0  0  0  0  0
    4.1087    1.9074    0.0000 C   0  0  0  0  0  0  0  0  0  0  0  0
    5.3878    2.6909    0.0000 S   0  0  0  0  0  0  0  0  0  0  0  0
    6.1713    1.4118    0.0000 O   0  0  0  0  0  0  0  0  0  0  0  0
    4.6043    3.9701    0.0000 O   0  0  0  0  0  0  0  0  0  0  0  0
    6.6669    3.4745    0.0000 O   0  0  0  0  0  0  0  0  0  0  0  0
    2.7906    2.6234    0.0000 C   0  0  0  0  0  0  0  0  0  0  0  0
    1.5115    1.8399    0.0000 C   0  0  0  0  0  0  0  0  0  0  0  0
    1.5505    0.3404    0.0000 C   0  0  0  0  0  0  0  0  0  0  0  0
   -4.9230   -0.5782    0.0000 C   0  0  0  0  0  0  0  0  0  0  0  0
   -6.2411    0.1378    0.0000 C   0  0  0  0  0  0  0  0  0  0  0  0
   -7.5202   -0.6457    0.0000 C   0  0  0  0  0  0  0  0  0  0  0  0
  1  2  1  0
  2  3  2  0
  3  4  1  0
  4  5  1  0
  4  6  2  0
  6  7  1  0
  7  8  2  0
  8  9  1  0
  9 10  2  0
 10 11  1  0
 10 12  1  0
 12 13  1  0
 13 14  2  0
 13 15  2  0
 13 16  1  0
 12 17  2  0
 17 18  1  0
 18 19  2  0
 19 20  1  0
 20 21  1  0
 21 22  2  0
 21 23  2  0
 21 24  1  0
 20 25  2  0
 25 26  1  0
 26 27  2  0
  6 28  1  0
 28 29  2  0
 29 30  1  0
 29  2  1  0
 27  9  1  0
 27 18  1  0
M  END
> <Identifier>
Drug_21

> <Carcinogen>
1

$$$$

     RDKit          2D

 29 31  0  0  0  0  0  0  0  0999 V2000
   -7.6583    2.8190    0.0000 C   0  0  0  0  0  0  0  0  0  0  0  0
   -6.3720    2.0472    0.0000 C   0  0  0  0  0  0  0  0  0  0  0  0
   -5.0606    2.7752    0.0000 C   0  0  0  0  0  0  0  0  0  0  0  0
   -3.7743    2.0035    0.0000 C   0  0  0  0  0  0  0  0  0  0  0  0
   -3.7996    0.5037    0.0000 C   0  0  0  0  0  0  0  0  0  0  0  0
   -2.5134   -0.2681    0.0000 N   0  0  0  0  0  0  0  0  0  0  0  0
   -1.2019    0.4600    0.0000 N   0  0  0  0  0  0  0  0  0  0  0  0
    0.0844   -0.3118    0.0000 C   0  0  0  0  0  0  0  0  0  0  0  0
    0.0591   -1.8116    0.0000 C   0  0  0  0  0  0  0  0  0  0  0  0
   -1.2524   -2.5396    0.0000 O   0  0  0  0  0  0  0  0  0  0  0  0
    1.3453   -2.5834    0.0000 C   0  0  0  0  0  0  0  0  0  0  0  0
    1.3201   -4.0831    0.0000 S   0  0  0  0  0  0  0  0  0  0  0  0
    2.8199   -4.1084    0.0000 O   0  0  0  0  0  0  0  0  0  0  0  0
   -0.1797   -4.0579    0.0000 O   0  0  0  0  0  0  0  0  0  0  0  0
    1.2948   -5.5829    0.0000 O   0  0  0  0  0  0  0  0  0  0  0  0
    2.6568   -1.8553    0.0000 C   0  0  0  0  0  0  0  0  0  0  0  0
    2.6821   -0.3555    0.0000 C   0  0  0  0  0  0  0  0  0  0  0  0
    3.9935    0.3725    0.0000 C   0  0  0  0  0  0  0  0  0  0  0  0
    4.0188    1.8723    0.0000 C   0  0  0  0  0  0  0  0  0  0  0  0
    5.3303    2.6003    0.0000 S   0  0  0  0  0  0  0  0  0  0  0  0
    6.0583    1.2888    0.0000 O   0  0  0  0  0  0  0  0  0  0  0  0
    4.6022    3.9118    0.0000 O   0  0  0  0  0  0  0  0  0  0  0  0
    6.6417    3.3283    0.0000 O   0  0  0  0  0  0  0  0  0  0  0  0
    2.7326    2.6440    0.0000 C   0  0  0  0  0  0  0  0  0  0  0  0
    1.4211    1.9160    0.0000 C   0  0  0  0  0  0  0  0  0  0  0  0
    1.3958    0.4162    0.0000 C   0  0  0  0  0  0  0  0  0  0  0  0
   -5.1111   -0.2243    0.0000 C   0  0  0  0  0  0  0  0  0  0  0  0
   -5.1363   -1.7241    0.0000 C   0  0  0  0  0  0  0  0  0  0  0  0
   -6.3973    0.5474    0.0000 C   0  0  0  0  0  0  0  0  0  0  0  0
  1  2  1  0
  2  3  2  0
  3  4  1  0
  4  5  2  0
  5  6  1  0
  6  7  2  0
  7  8  1  0
  8  9  2  0
  9 10  1  0
  9 11  1  0
 11 12  1  0
 12 13  2  0
 12 14  2  0
 12 15  1  0
 11 16  2  0
 16 17  1  0
 17 18  2  0
 18 19  1  0
 19 20  1  0
 20 21  2  0
 20 22  2  0
 20 23  1  0
 19 24  2  0
 24 25  1  0
 25 26  2  0
  5 27  1  0
 27 28  1  0
 27 29  2  0
 29  2  1  0
 26  8  1  0
 26 17  1  0
M  END
> <Identifier>
Drug_22

> <Carcinogen>
1

$$$$

     RDKit          2D

 51 55  0  0  0  0  0  0  0  0999 V2000
   -8.2727   -0.2350    0.0000 C   0  0  0  0  0  0  0  0  0  0  0  0
   -8.0678   -1.7209    0.0000 C   0  0  0  0  0  0  0  0  0  0  0  0
   -6.6785   -2.2865    0.0000 N   0  0  0  0  0  0  0  0  0  0  0  0
   -6.4736   -3.7724    0.0000 C   0  0  0  0  0  0  0  0  0  0  0  0
   -5.0843   -4.3380    0.0000 C   0  0  0  0  0  0  0  0  0  0  0  0
   -4.8795   -5.8239    0.0000 C   0  0  0  0  0  0  0  0  0  0  0  0
   -3.4902   -6.3895    0.0000 C   0  0  0  0  0  0  0  0  0  0  0  0
   -2.3058   -5.4691    0.0000 C   0  0  0  0  0  0  0  0  0  0  0  0
   -2.5106   -3.9832    0.0000 C   0  0  0  0  0  0  0  0  0  0  0  0
   -1.3262   -3.0628    0.0000 S   0  0  0  0  0  0  0  0  0  0  0  0
   -0.4058   -4.2472    0.0000 O   0  0  0  0  0  0  0  0  0  0  0  0
   -2.2466   -1.8783    0.0000 O   0  0  0  0  0  0  0  0  0  0  0  0
   -0.1417   -2.1424    0.0000 O   0  0  0  0  0  0  0  0  0  0  0  0
   -3.8999   -3.4176    0.0000 C   0  0  0  0  0  0  0  0  0  0  0  0
   -5.4941   -1.3661    0.0000 C   0  0  0  0  0  0  0  0  0  0  0  0
   -4.1048   -1.9316    0.0000 C   0  0  0  0  0  0  0  0  0  0  0  0
   -2.9203   -1.0113    0.0000 C   0  0  0  0  0  0  0  0  0  0  0  0
   -3.1252    0.4747    0.0000 C   0  0  0  0  0  0  0  0  0  0  0  0
   -1.9408    1.3951    0.0000 C   0  0  0  0  0  0  0  0  0  0  0  0
   -0.5515    0.8295    0.0000 C   0  0  0  0  0  0  0  0  0  0  0  0
   -0.3466   -0.6564    0.0000 C   0  0  0  0  0  0  0  0  0  0  0  0
    1.0427   -1.2220    0.0000 C   0  0  0  0  0  0  0  0  0  0  0  0
    2.2271   -0.3016    0.0000 C   0  0  0  0  0  0  0  0  0  0  0  0
    3.6164   -0.8672    0.0000 N   0  0  0  0  0  4  0  0  0  0  0  0
    3.8213   -2.3531    0.0000 C   0  0  0  0  0  0  0  0  0  0  0  0
    5.2106   -2.9187    0.0000 C   0  0  0  0  0  0  0  0  0  0  0  0
    4.8009    0.0532    0.0000 C   0  0  0  0  0  0  0  0  0  0  0  0
    6.1902   -0.5123    0.0000 C   0  0  0  0  0  0  0  0  0  0  0  0
    6.3950   -1.9983    0.0000 C   0  0  0  0  0  0  0  0  0  0  0  0
    7.7843   -2.5638    0.0000 C   0  0  0  0  0  0  0  0  0  0  0  0
    8.9687   -1.6434    0.0000 C   0  0  0  0  0  0  0  0  0  0  0  0
    8.7639   -0.1575    0.0000 C   0  0  0  0  0  0  0  0  0  0  0  0
    9.9483    0.7629    0.0000 S   0  0  0  0  0  0  0  0  0  0  0  0
   10.8687   -0.4215    0.0000 O   0  0  0  0  0  0  0  0  0  0  0  0
    9.0279    1.9473    0.0000 O   0  0  0  0  0  0  0  0  0  0  0  0
   11.1328    1.6833    0.0000 O   0  0  0  0  0  1  0  0  0  0  0  0
    7.3746    0.4081    0.0000 C   0  0  0  0  0  0  0  0  0  0  0  0
    2.0223    1.1843    0.0000 C   0  0  0  0  0  0  0  0  0  0  0  0
    0.6330    1.7499    0.0000 C   0  0  0  0  0  0  0  0  0  0  0  0
   -2.1456    2.8810    0.0000 C   0  0  0  0  0  0  0  0  0  0  0  0
   -0.9612    3.8014    0.0000 C   0  0  0  0  0  0  0  0  0  0  0  0
   -1.1661    5.2873    0.0000 C   0  0  0  0  0  0  0  0  0  0  0  0
   -2.5554    5.8529    0.0000 C   0  0  0  0  0  0  0  0  0  0  0  0
   -2.7602    7.3389    0.0000 S   0  0  0  0  0  0  0  0  0  0  0  0
   -1.2743    7.5437    0.0000 O   0  0  0  0  0  0  0  0  0  0  0  0
   -4.2462    7.1340    0.0000 O   0  0  0  0  0  0  0  0  0  0  0  0
   -2.9651    8.8248    0.0000 O   0  0  0  0  0  0  0  0  0  0  0  0
   -3.7398    4.9325    0.0000 C   0  0  0  0  0  0  0  0  0  0  0  0
   -3.5349    3.4466    0.0000 C   0  0  0  0  0  0  0  0  0  0  0  0
   -4.5145    1.0402    0.0000 C   0  0  0  0  0  0  0  0  0  0  0  0
   -5.6989    0.1199    0.0000 C   0  0  0  0  0  0  0  0  0  0  0  0
  1  2  1  0
  2  3  1  0
  3  4  1  0
  4  5  1  0
  5  6  2  0
  6  7  1  0
  7  8  2  0
  8  9  1  0
  9 10  1  0
 10 11  2  0
 10 12  2  0
 10 13  1  0
  9 14  2  0
  3 15  1  0
 15 16  2  0
 16 17  1  0
 17 18  2  0
 18 19  1  0
 19 20  2  0
 20 21  1  0
 21 22  2  0
 22 23  1  0
 23 24  2  0
 24 25  1  0
 25 26  1  0
 24 27  1  0
 27 28  1  0
 28 29  2  0
 29 30  1  0
 30 31  2  0
 31 32  1  0
 32 33  1  0
 33 34  2  0
 33 35  2  0
 33 36  1  0
 32 37  2  0
 23 38  1  0
 38 39  2  0
 19 40  1  0
 40 41  2  0
 41 42  1  0
 42 43  2  0
 43 44  1  0
 44 45  2  0
 44 46  2  0
 44 47  1  0
 43 48  1  0
 48 49  2  0
 18 50  1  0
 50 51  2  0
 14  5  1  0
 51 15  1  0
 39 20  1  0
 49 40  1  0
 37 28  1  0
M  CHG  2  24   1  36  -1
M  END
> <Identifier>
Drug_23

> <Carcinogen>
1

$$$$

     RDKit          2D

 47 51  0  0  0  0  0  0  0  0999 V2000
   -8.4336    1.2265    0.0000 C   0  0  0  0  0  0  0  0  0  0  0  0
   -8.3706   -0.2721    0.0000 C   0  0  0  0  0  0  0  0  0  0  0  0
   -7.0412   -0.9669    0.0000 N   0  0  0  0  0  0  0  0  0  0  0  0
   -6.9782   -2.4656    0.0000 C   0  0  0  0  0  0  0  0  0  0  0  0
   -5.6488   -3.1603    0.0000 C   0  0  0  0  0  0  0  0  0  0  0  0
   -5.5858   -4.6590    0.0000 C   0  0  0  0  0  0  0  0  0  0  0  0
   -4.2564   -5.3538    0.0000 C   0  0  0  0  0  0  0  0  0  0  0  0
   -2.9900   -4.5499    0.0000 C   0  0  0  0  0  0  0  0  0  0  0  0
   -3.0530   -3.0512    0.0000 C   0  0  0  0  0  0  0  0  0  0  0  0
   -1.7866   -2.2473    0.0000 S   0  0  0  0  0  0  0  0  0  0  0  0
   -0.9827   -3.5136    0.0000 O   0  0  0  0  0  0  0  0  0  0  0  0
   -2.5905   -0.9809    0.0000 O   0  0  0  0  0  0  0  0  0  0  0  0
   -0.5202   -1.4433    0.0000 O   0  0  0  0  0  0  0  0  0  0  0  0
   -4.3824   -2.3564    0.0000 C   0  0  0  0  0  0  0  0  0  0  0  0
   -5.7748   -0.1630    0.0000 C   0  0  0  0  0  0  0  0  0  0  0  0
   -4.4454   -0.8577    0.0000 C   0  0  0  0  0  0  0  0  0  0  0  0
   -3.1790   -0.0538    0.0000 C   0  0  0  0  0  0  0  0  0  0  0  0
   -3.2421    1.4449    0.0000 C   0  0  0  0  0  0  0  0  0  0  0  0
   -1.9757    2.2488    0.0000 C   0  0  0  0  0  0  0  0  0  0  0  0
   -0.6463    1.5540    0.0000 C   0  0  0  0  0  0  0  0  0  0  0  0
   -0.5833    0.0553    0.0000 C   0  0  0  0  0  0  0  0  0  0  0  0
    0.7461   -0.6394    0.0000 C   0  0  0  0  0  0  0  0  0  0  0  0
    2.0125    0.1645    0.0000 C   0  0  0  0  0  0  0  0  0  0  0  0
    3.3419   -0.5303    0.0000 N   0  0  0  0  0  4  0  0  0  0  0  0
    3.4049   -2.0289    0.0000 C   0  0  0  0  0  0  0  0  0  0  0  0
    4.7343   -2.7237    0.0000 C   0  0  0  0  0  0  0  0  0  0  0  0
    4.6083    0.2736    0.0000 C   0  0  0  0  0  0  0  0  0  0  0  0
    5.9377   -0.4211    0.0000 C   0  0  0  0  0  0  0  0  0  0  0  0
    6.0007   -1.9198    0.0000 C   0  0  0  0  0  0  0  0  0  0  0  0
    7.3301   -2.6146    0.0000 C   0  0  0  0  0  0  0  0  0  0  0  0
    8.5965   -1.8106    0.0000 C   0  0  0  0  0  0  0  0  0  0  0  0
    8.5335   -0.3120    0.0000 C   0  0  0  0  0  0  0  0  0  0  0  0
    9.7999    0.4920    0.0000 S   0  0  0  0  0  0  0  0  0  0  0  0
   10.6038   -0.7744    0.0000 O   0  0  0  0  0  0  0  0  0  0  0  0
    8.9960    1.7583    0.0000 O   0  0  0  0  0  0  0  0  0  0  0  0
   11.0662    1.2959    0.0000 O   0  0  0  0  0  1  0  0  0  0  0  0
    7.2041    0.3828    0.0000 C   0  0  0  0  0  0  0  0  0  0  0  0
    1.9495    1.6632    0.0000 C   0  0  0  0  0  0  0  0  0  0  0  0
    0.6201    2.3579    0.0000 C   0  0  0  0  0  0  0  0  0  0  0  0
   -2.0387    3.7474    0.0000 C   0  0  0  0  0  0  0  0  0  0  0  0
   -0.7723    4.5514    0.0000 C   0  0  0  0  0  0  0  0  0  0  0  0
   -0.8353    6.0500    0.0000 C   0  0  0  0  0  0  0  0  0  0  0  0
   -2.1647    6.7448    0.0000 C   0  0  0  0  0  0  0  0  0  0  0  0
   -3.4311    5.9409    0.0000 C   0  0  0  0  0  0  0  0  0  0  0  0
   -3.3681    4.4422    0.0000 C   0  0  0  0  0  0  0  0  0  0  0  0
   -4.5715    2.1396    0.0000 C   0  0  0  0  0  0  0  0  0  0  0  0
   -5.8378    1.3357    0.0000 C   0  0  0  0  0  0  0  0  0  0  0  0
  1  2  1  0
  2  3  1  0
  3  4  1  0
  4  5  1  0
  5  6  2  0
  6  7  1  0
  7  8  2  0
  8  9  1  0
  9 10  1  0
 10 11  2  0
 10 12  2  0
 10 13  1  0
  9 14  2  0
  3 15  1  0
 15 16  2  0
 16 17  1  0
 17 18  2  0
 18 19  1  0
 19 20  2  0
 20 21  1  0
 21 22  2  0
 22 23  1  0
 23 24  2  0
 24 25  1  0
 25 26  1  0
 24 27  1  0
 27 28  1  0
 28 29  2  0
 29 30  1  0
 30 31  2  0
 31 32  1  0
 32 33  1  0
 33 34  2  0
 33 35  2  0
 33 36  1  0
 32 37  2  0
 23 38  1  0
 38 39  2  0
 19 40  1  0
 40 41  2  0
 41 42  1  0
 42 43  2  0
 43 44  1  0
 44 45  2  0
 18 46  1  0
 46 47  2  0
 14  5  1  0
 47 15  1  0
 39 20  1  0
 45 40  1  0
 37 28  1  0
M  CHG  2  24   1  36  -1
M  END
> <Identifier>
Drug_24

> <Carcinogen>
1

$$$$

     RDKit          2D

  4  3  0  0  0  0  0  0  0  0999 V2000
   -1.9796   -0.1365    0.0000 C   0  0  0  0  0  0  0  0  0  0  0  0
   -0.5994    0.4508    0.0000 C   0  0  0  0  0  0  0  0  0  0  0  0
    0.5994   -0.4508    0.0000 N   0  0  0  0  0  0  0  0  0  0  0  0
    1.9796    0.1365    0.0000 N   0  0  0  0  0  0  0  0  0  0  0  0
  1  2  1  0
  2  3  1  0
  3  4  1  0
M  END
> <Identifier>
Drug_25

> <Carcinogen>
1

$$$$

     RDKit          2D

 30 31  0  0  0  0  0  0  0  0999 V2000
    0.0981    5.3555    0.0000 C   0  0  0  0  0  0  0  0  0  0  0  0
   -0.9558    4.2881    0.0000 C   0  0  0  0  0  0  0  0  0  0  0  0
   -0.5584    2.8417    0.0000 C   0  0  0  0  0  0  0  0  0  0  0  0
   -1.8526    2.0835    0.0000 C   0  0  0  0  0  0  0  0  0  0  0  0
   -2.5943    0.7797    0.0000 C   0  0  0  0  0  0  0  0  0  0  0  0
   -3.5658    1.9226    0.0000 C   0  0  0  0  0  0  0  0  0  0  0  0
   -4.0537    0.4330    0.0000 C   0  0  0  0  0  0  0  0  0  0  0  0
   -2.5848   -0.7203    0.0000 C   0  0  0  0  0  0  0  0  0  0  0  0
   -4.0485   -0.3922    0.0000 C   0  0  0  0  0  0  0  0  0  0  0  0
   -3.5417   -1.8755    0.0000 O   0  0  0  0  0  0  0  0  0  0  0  0
   -5.0205   -1.6244    0.0000 C   0  0  0  0  0  0  0  0  0  0  0  0
   -5.9774   -2.7795    0.0000 C   0  0  0  0  0  0  0  0  0  0  0  0
   -5.5425   -0.2181    0.0000 O   0  0  0  0  0  0  0  0  0  0  0  0
   -1.8266   -2.0145    0.0000 C   0  0  0  0  0  0  0  0  0  0  0  0
   -2.8805   -3.0819    0.0000 O   0  0  0  0  0  0  0  0  0  0  0  0
   -0.5228   -2.7563    0.0000 O   0  0  0  0  0  0  0  0  0  0  0  0
    0.9772   -2.7467    0.0000 C   0  0  0  0  0  0  0  0  0  0  0  0
    2.3033   -1.8665    0.0000 C   0  0  0  0  0  0  0  0  0  0  0  0
    3.4991   -2.7720    0.0000 C   0  0  0  0  0  0  0  0  0  0  0  0
    4.9850   -2.5668    0.0000 C   0  0  0  0  0  0  0  0  0  0  0  0
    5.8905   -1.3710    0.0000 N   0  0  0  0  0  0  0  0  0  0  0  0
    7.3419   -1.7500    0.0000 C   0  0  0  0  0  0  0  0  0  0  0  0
    5.6853    0.1149    0.0000 C   0  0  0  0  0  0  0  0  0  0  0  0
    4.4895    1.0205    0.0000 C   0  0  0  0  0  0  0  0  0  0  0  0
    3.0036    0.8152    0.0000 C   0  0  0  0  0  0  0  0  0  0  0  0
    2.2454    2.1095    0.0000 O   0  0  0  0  0  0  0  0  0  0  0  0
    0.9416    2.8512    0.0000 C   0  0  0  0  0  0  0  0  0  0  0  0
    1.3206    4.3025    0.0000 O   0  0  0  0  0  0  0  0  0  0  0  0
    2.0981   -0.3806    0.0000 C   0  0  0  0  0  0  0  0  0  0  0  0
    0.6467   -0.0016    0.0000 O   0  0  0  0  0  0  0  0  0  0  0  0
  1  2  2  0
  2  3  1  0
  3  4  2  0
  4  5  1  0
  5  6  1  0
  5  7  1  0
  5  8  1  0
  8  9  1  6
  8 10  1  0
 10 11  1  0
 11 12  1  0
 11 13  2  0
  8 14  1  0
 14 15  2  0
 14 16  1  0
 16 17  1  0
 17 18  1  0
 18 19  2  0
 19 20  1  0
 20 21  1  0
 21 22  1  0
 21 23  1  0
 23 24  1  0
 25 24  1  6
 25 26  1  0
 26 27  1  0
 27 28  2  0
 25 29  1  0
 29 30  2  0
 27  3  1  0
 29 18  1  0
M  END
> <Identifier>
Drug_26

> <Carcinogen>
1

$$$$

     RDKit          2D

 25 27  0  0  0  0  0  0  0  0999 V2000
   -3.1783    3.3092    0.0000 C   0  0  0  0  0  0  0  0  0  0  0  0
   -3.5280    1.8505    0.0000 N   0  0  0  0  0  0  0  0  0  0  0  0
   -4.9661    1.4240    0.0000 C   0  0  0  0  0  0  0  0  0  0  0  0
   -5.3159   -0.0346    0.0000 C   0  0  0  0  0  0  0  0  0  0  0  0
   -6.7540   -0.4611    0.0000 C   0  0  0  0  0  0  0  0  0  0  0  0
   -7.1037   -1.9197    0.0000 O   0  0  0  0  0  0  0  0  0  0  0  0
   -7.8423    0.5711    0.0000 O   0  0  0  0  0  0  0  0  0  0  0  0
   -4.2275   -1.0668    0.0000 C   0  0  0  0  0  0  0  0  0  0  0  0
   -4.5772   -2.5255    0.0000 O   0  0  0  0  0  0  0  0  0  0  0  0
   -2.7894   -0.6404    0.0000 C   0  0  0  0  0  0  0  0  0  0  0  0
   -1.7010   -1.6726    0.0000 C   0  0  0  0  0  0  0  0  0  0  0  0
   -0.2629   -1.2461    0.0000 C   0  0  0  0  0  0  0  0  0  0  0  0
    0.0868    0.2126    0.0000 C   0  0  0  0  0  0  0  0  0  0  0  0
    1.5249    0.6390    0.0000 C   0  0  0  0  0  0  0  0  0  0  0  0
    2.6133   -0.3932    0.0000 C   0  0  0  0  0  0  0  0  0  0  0  0
    4.0514    0.0333    0.0000 C   0  0  0  0  0  0  0  0  0  0  0  0
    4.5517    1.4474    0.0000 C   0  0  0  0  0  0  0  0  0  0  0  0
    6.0512    1.4086    0.0000 C   0  0  0  0  0  0  0  0  0  0  0  0
    6.4776   -0.0295    0.0000 C   0  0  0  0  0  0  0  0  0  0  0  0
    7.8917   -0.5298    0.0000 N   0  0  0  0  0  4  0  0  0  0  0  0
    9.0320    0.4447    0.0000 O   0  0  0  0  0  0  0  0  0  0  0  0
    8.1655   -2.0046    0.0000 O   0  0  0  0  0  1  0  0  0  0  0  0
    5.2417   -0.8795    0.0000 O   0  0  0  0  0  0  0  0  0  0  0  0
   -1.0016    1.2448    0.0000 N   0  0  0  0  0  0  0  0  0  0  0  0
   -2.4397    0.8183    0.0000 C   0  0  0  0  0  0  0  0  0  0  0  0
  1  2  1  0
  2  3  1  0
  3  4  2  0
  4  5  1  0
  5  6  2  0
  5  7  1  0
  4  8  1  0
  8  9  2  0
  8 10  1  0
 10 11  2  0
 11 12  1  0
 12 13  2  0
 13 14  1  0
 14 15  2  0
 15 16  1  0
 16 17  2  0
 17 18  1  0
 18 19  2  0
 19 20  1  0
 20 21  2  0
 20 22  1  0
 19 23  1  0
 13 24  1  0
 24 25  2  0
 25  2  1  0
 25 10  1  0
 23 16  1  0
M  CHG  2  20   1  22  -1
M  END
> <Identifier>
Drug_27

> <Carcinogen>
1

$$$$

     RDKit          2D

  7  6  0  0  0  0  0  0  0  0999 V2000
   -3.8971   -0.3214    0.0000 C   0  0  0  0  0  0  0  0  0  0  0  0
   -2.5981    0.4286    0.0000 C   0  0  0  0  0  0  0  0  0  0  0  0
   -1.2990   -0.3214    0.0000 C   0  0  0  0  0  0  0  0  0  0  0  0
    0.0000    0.4286    0.0000 C   0  0  0  0  0  0  0  0  0  0  0  0
    1.2990   -0.3214    0.0000 C   0  0  0  0  0  0  0  0  0  0  0  0
    2.5981    0.4286    0.0000 N   0  0  0  0  0  0  0  0  0  0  0  0
    3.8971   -0.3214    0.0000 N   0  0  0  0  0  0  0  0  0  0  0  0
  1  2  1  0
  2  3  1  0
  3  4  1  0
  4  5  1  0
  5  6  1  0
  6  7  1  0
M  END
> <Identifier>
Drug_28

> <Carcinogen>
1

$$$$

     RDKit          2D

  5  4  0  0  0  0  0  0  0  0999 V2000
   -2.5981   -0.3000    0.0000 C   0  0  0  0  0  0  0  0  0  0  0  0
   -1.2990    0.4500    0.0000 C   0  0  0  0  0  0  0  0  0  0  0  0
    0.0000   -0.3000    0.0000 C   0  0  0  0  0  0  0  0  0  0  0  0
    1.2990    0.4500    0.0000 N   0  0  0  0  0  0  0  0  0  0  0  0
    2.5981   -0.3000    0.0000 N   0  0  0  0  0  0  0  0  0  0  0  0
  1  2  1  0
  2  3  1  0
  3  4  1  0
  4  5  1  0
M  END
> <Identifier>
Drug_29

> <Carcinogen>
1

$$$$

     RDKit          2D

 17 18  0  0  0  0  0  0  0  0999 V2000
   -0.7422   -2.9241    0.0000 C   0  0  0  0  0  0  0  0  0  0  0  0
    0.1951   -1.7530    0.0000 C   0  0  0  0  0  0  0  0  0  0  0  0
   -0.3505   -0.3557    0.0000 C   0  0  0  0  0  0  0  0  0  0  0  0
    1.1203   -0.0611    0.0000 C   0  0  0  0  0  0  0  0  0  0  0  0
    2.1108   -1.1875    0.0000 C   0  0  0  0  0  0  0  0  0  0  0  0
    3.5816   -0.8929    0.0000 C   0  0  0  0  0  0  0  0  0  0  0  0
    4.0618    0.5282    0.0000 C   0  0  0  0  0  0  0  0  0  0  0  0
    3.0713    1.6546    0.0000 C   0  0  0  0  0  0  0  0  0  0  0  0
    1.6005    1.3600    0.0000 C   0  0  0  0  0  0  0  0  0  0  0  0
   -0.3853    1.1439    0.0000 C   0  0  0  0  0  0  0  0  0  0  0  0
    0.8960    1.9238    0.0000 O   0  0  0  0  0  0  0  0  0  0  0  0
   -1.7013    1.8636    0.0000 N   0  0  0  0  0  0  0  0  0  0  0  0
   -2.9826    1.0837    0.0000 C   0  0  0  0  0  0  0  0  0  0  0  0
   -4.2987    1.8034    0.0000 O   0  0  0  0  0  0  0  0  0  0  0  0
   -2.9479   -0.4159    0.0000 N   0  0  0  0  0  0  0  0  0  0  0  0
   -1.6318   -1.1356    0.0000 C   0  0  0  0  0  0  0  0  0  0  0  0
   -1.5970   -2.6352    0.0000 O   0  0  0  0  0  0  0  0  0  0  0  0
  1  2  1  0
  2  3  1  0
  3  4  1  0
  4  5  2  0
  5  6  1  0
  6  7  2  0
  7  8  1  0
  8  9  2  0
  3 10  1  0
 10 11  2  0
 10 12  1  0
 12 13  2  0
 13 14  1  0
 13 15  1  0
 15 16  1  0
 16 17  2  0
 16  3  1  0
  9  4  1  0
M  END
> <Identifier>
Drug_30

> <Carcinogen>
1

$$$$

     RDKit          2D

 19 21  0  0  0  0  0  0  0  0999 V2000
    2.6872    3.5068    0.0000 N   0  0  0  0  0  0  0  0  0  0  0  0
    2.6360    2.0076    0.0000 C   0  0  0  0  0  0  0  0  0  0  0  0
    1.3121    1.3025    0.0000 N   0  0  0  0  0  0  0  0  0  0  0  0
    1.2608   -0.1967    0.0000 C   0  0  0  0  0  0  0  0  0  0  0  0
    2.5335   -0.9906    0.0000 C   0  0  0  0  0  0  0  0  0  0  0  0
    2.1717   -2.4463    0.0000 N   0  0  0  0  0  0  0  0  0  0  0  0
    0.6754   -2.5521    0.0000 C   0  0  0  0  0  0  0  0  0  0  0  0
    0.1125   -1.1617    0.0000 N   0  0  0  0  0  0  0  0  0  0  0  0
   -1.3432   -0.7999    0.0000 C   0  0  0  0  0  0  0  0  0  0  0  0
   -2.4916   -1.7649    0.0000 C   0  0  0  0  0  0  0  0  0  0  0  0
   -3.7642   -0.9710    0.0000 C   0  0  0  0  0  0  0  0  0  0  0  0
   -5.1546   -1.5339    0.0000 O   0  0  0  0  0  0  0  0  0  0  0  0
   -3.4024    0.4847    0.0000 C   0  0  0  0  0  0  0  0  0  0  0  0
   -4.3675    1.6331    0.0000 C   0  0  0  0  0  0  0  0  0  0  0  0
   -3.8555    3.0430    0.0000 O   0  0  0  0  0  0  0  0  0  0  0  0
   -1.9062    0.5905    0.0000 O   0  0  0  0  0  0  0  0  0  0  0  0
    3.8574   -0.2854    0.0000 C   0  0  0  0  0  0  0  0  0  0  0  0
    5.1301   -1.0794    0.0000 S   0  0  0  0  0  0  0  0  0  0  0  0
    3.9086    1.2137    0.0000 N   0  0  0  0  0  0  0  0  0  0  0  0
  1  2  1  0
  2  3  2  0
  3  4  1  0
  4  5  2  0
  5  6  1  0
  6  7  2  0
  7  8  1  0
  9  8  1  1
  9 10  1  0
 10 11  1  0
 11 12  1  0
 11 13  1  0
 13 14  1  1
 14 15  1  0
 13 16  1  0
  5 17  1  0
 17 18  2  0
 17 19  1  0
 19  2  1  0
  8  4  1  0
 16  9  1  0
M  END
> <Identifier>
Drug_31

> <Carcinogen>
1

$$$$

     RDKit          2D

 33 36  0  0  0  0  0  0  0  0999 V2000
    7.9863   -2.9253    0.0000 C   0  0  0  0  0  0  0  0  0  0  0  0
    6.5526   -2.4845    0.0000 C   0  0  0  0  0  0  0  0  0  0  0  0
    6.2174   -1.0224    0.0000 N   0  0  0  0  0  0  0  0  0  0  0  0
    4.7837   -0.5816    0.0000 C   0  0  0  0  0  0  0  0  0  0  0  0
    3.6850   -1.6029    0.0000 C   0  0  0  0  0  0  0  0  0  0  0  0
    2.2513   -1.1621    0.0000 C   0  0  0  0  0  0  0  0  0  0  0  0
    1.1526   -2.1833    0.0000 O   0  0  0  0  0  0  0  0  0  0  0  0
   -0.2812   -1.7425    0.0000 C   0  0  0  0  0  0  0  0  0  0  0  0
   -1.3798   -2.7638    0.0000 C   0  0  0  0  0  0  0  0  0  0  0  0
   -2.8136   -2.3230    0.0000 C   0  0  0  0  0  0  0  0  0  0  0  0
   -3.9122   -3.3442    0.0000 N   0  0  0  0  0  0  0  0  0  0  0  0
   -3.5771   -4.8063    0.0000 C   0  0  0  0  0  0  0  0  0  0  0  0
   -4.6757   -5.8276    0.0000 C   0  0  0  0  0  0  0  0  0  0  0  0
   -3.1487   -0.8609    0.0000 C   0  0  0  0  0  0  0  0  0  0  0  0
   -4.5824   -0.4201    0.0000 C   0  0  0  0  0  0  0  0  0  0  0  0
   -2.0500    0.1604    0.0000 C   0  0  0  0  0  0  0  0  0  0  0  0
   -0.6163   -0.2804    0.0000 C   0  0  0  0  0  0  0  0  0  0  0  0
    0.4824    0.7408    0.0000 C   0  0  0  0  0  0  0  0  0  0  0  0
    0.1472    2.2029    0.0000 C   0  0  0  0  0  0  0  0  0  0  0  0
    1.2459    3.2242    0.0000 C   0  0  0  0  0  0  0  0  0  0  0  0
    0.9107    4.6863    0.0000 C   0  0  0  0  0  0  0  0  0  0  0  0
   -0.5230    5.1271    0.0000 C   0  0  0  0  0  0  0  0  0  0  0  0
   -1.6217    4.1058    0.0000 C   0  0  0  0  0  0  0  0  0  0  0  0
   -1.2865    2.6437    0.0000 C   0  0  0  0  0  0  0  0  0  0  0  0
   -2.3852    1.6225    0.0000 C   0  0  0  0  0  0  0  0  0  0  0  0
   -2.4004    0.8254    0.0000 O   0  0  0  0  0  0  0  0  0  0  0  0
   -3.8189    2.0633    0.0000 O   0  0  0  0  0  0  0  0  0  0  0  0
   -4.9176    1.0420    0.0000 C   0  0  0  0  0  0  0  0  0  0  0  0
   -6.3513    1.4828    0.0000 C   0  0  0  0  0  0  0  0  0  0  0  0
    1.9161    0.3000    0.0000 C   0  0  0  0  0  0  0  0  0  0  0  0
    3.0148    1.3213    0.0000 C   0  0  0  0  0  0  0  0  0  0  0  0
    4.4485    0.8805    0.0000 C   0  0  0  0  0  0  0  0  0  0  0  0
    5.5472    1.9018    0.0000 C   0  0  0  0  0  0  0  0  0  0  0  0
  1  2  1  0
  2  3  1  0
  3  4  2  0
  4  5  1  0
  5  6  2  0
  6  7  1  0
  7  8  1  0
  8  9  2  0
  9 10  1  0
 10 11  1  0
 11 12  1  0
 12 13  1  0
 10 14  2  0
 14 15  1  0
 14 16  1  0
 16 17  2  0
 17 18  1  0
 18 19  1  0
 19 20  2  0
 20 21  1  0
 21 22  2  0
 22 23  1  0
 23 24  2  0
 24 25  1  0
 25 26  2  0
 25 27  1  0
 27 28  1  0
 28 29  1  0
 18 30  2  0
 30 31  1  0
 31 32  2  0
 32 33  1  0
 32  4  1  0
 30  6  1  0
 17  8  1  0
 24 19  1  0
M  END
> <Identifier>
Drug_32

> <Carcinogen>
1

$$$$

     RDKit          2D

 12 12  0  0  0  0  0  0  0  0999 V2000
    3.0000    0.0000    0.0000 N   0  0  0  0  0  0  0  0  0  0  0  0
    1.5000    0.0000    0.0000 C   0  0  0  0  0  0  0  0  0  0  0  0
    0.7500   -1.2990    0.0000 C   0  0  0  0  0  0  0  0  0  0  0  0
    1.5000   -2.5981    0.0000 F   0  0  0  0  0  0  0  0  0  0  0  0
   -0.7500   -1.2990    0.0000 C   0  0  0  0  0  0  0  0  0  0  0  0
   -1.5000   -2.5981    0.0000 N   0  0  0  0  0  0  0  0  0  0  0  0
   -1.5000    0.0000    0.0000 C   0  0  0  0  0  0  0  0  0  0  0  0
   -3.0000    0.0000    0.0000 F   0  0  0  0  0  0  0  0  0  0  0  0
   -0.7500    1.2990    0.0000 C   0  0  0  0  0  0  0  0  0  0  0  0
   -1.5000    2.5981    0.0000 F   0  0  0  0  0  0  0  0  0  0  0  0
    0.7500    1.2990    0.0000 C   0  0  0  0  0  0  0  0  0  0  0  0
    1.5000    2.5981    0.0000 F   0  0  0  0  0  0  0  0  0  0  0  0
  1  2  1  0
  2  3  2  0
  3  4  1  0
  3  5  1  0
  5  6  1  0
  5  7  2  0
  7  8  1  0
  7  9  1  0
  9 10  1  0
  9 11  2  0
 11 12  1  0
 11  2  1  0
M  END
> <Identifier>
Drug_33

> <Carcinogen>
1

$$$$

     RDKit          2D

 54 59  0  0  0  0  0  0  0  0999 V2000
  -14.4300    5.3594    0.0000 C   0  0  0  0  0  0  0  0  0  0  0  0
  -13.8373    3.9815    0.0000 C   0  0  0  0  0  0  0  0  0  0  0  0
  -12.3476    3.8058    0.0000 C   0  0  0  0  0  0  0  0  0  0  0  0
  -11.7549    2.4279    0.0000 C   0  0  0  0  0  0  0  0  0  0  0  0
  -12.6519    1.2256    0.0000 C   0  0  0  0  0  0  0  0  0  0  0  0
  -12.0592   -0.1523    0.0000 S   0  0  0  0  0  0  0  0  0  0  0  0
  -10.6812    0.4404    0.0000 O   0  0  0  0  0  0  0  0  0  0  0  0
  -13.4371   -0.7450    0.0000 O   0  0  0  0  0  0  0  0  0  0  0  0
  -11.4665   -1.5303    0.0000 O   0  0  0  0  0  0  0  0  0  0  0  0
   -9.9768   -1.7060    0.0000 C   0  0  0  0  0  0  0  0  0  0  0  0
   -9.3841   -3.0839    0.0000 C   0  0  0  0  0  0  0  0  0  0  0  0
   -7.8944   -3.2596    0.0000 C   0  0  0  0  0  0  0  0  0  0  0  0
   -6.9974   -2.0573    0.0000 C   0  0  0  0  0  0  0  0  0  0  0  0
   -5.5078   -2.2330    0.0000 N   0  0  0  0  0  0  0  0  0  0  0  0
   -4.6108   -1.0307    0.0000 N   0  0  0  0  0  0  0  0  0  0  0  0
   -3.1211   -1.2064    0.0000 C   0  0  0  0  0  0  0  0  0  0  0  0
   -2.5284   -2.5844    0.0000 C   0  0  0  0  0  0  0  0  0  0  0  0
   -1.0387   -2.7600    0.0000 C   0  0  0  0  0  0  0  0  0  0  0  0
   -0.1418   -1.5578    0.0000 C   0  0  0  0  0  0  0  0  0  0  0  0
    1.3479   -1.7335    0.0000 C   0  0  0  0  0  0  0  0  0  0  0  0
    1.9406   -3.1114    0.0000 C   0  0  0  0  0  0  0  0  0  0  0  0
    3.4303   -3.2871    0.0000 C   0  0  0  0  0  0  0  0  0  0  0  0
    4.3273   -2.0848    0.0000 C   0  0  0  0  0  0  0  0  0  0  0  0
    5.8170   -2.2605    0.0000 N   0  0  0  0  0  0  0  0  0  0  0  0
    6.7139   -1.0582    0.0000 N   0  0  0  0  0  0  0  0  0  0  0  0
    8.2036   -1.2339    0.0000 C   0  0  0  0  0  0  0  0  0  0  0  0
    8.7963   -2.6119    0.0000 C   0  0  0  0  0  0  0  0  0  0  0  0
    7.8993   -3.8141    0.0000 O   0  0  0  0  0  0  0  0  0  0  0  0
   10.2860   -2.7875    0.0000 C   0  0  0  0  0  0  0  0  0  0  0  0
   11.1830   -1.5853    0.0000 C   0  0  0  0  0  0  0  0  0  0  0  0
   10.5903   -0.2073    0.0000 C   0  0  0  0  0  0  0  0  0  0  0  0
   11.4872    0.9949    0.0000 C   0  0  0  0  0  0  0  0  0  0  0  0
   10.8946    2.3729    0.0000 C   0  0  0  0  0  0  0  0  0  0  0  0
   11.7915    3.5751    0.0000 S   0  0  0  0  0  0  0  0  0  0  0  0
   12.9938    2.6781    0.0000 O   0  0  0  0  0  0  0  0  0  0  0  0
   10.5893    4.4721    0.0000 O   0  0  0  0  0  0  0  0  0  0  0  0
   12.6885    4.7774    0.0000 O   0  0  0  0  0  0  0  0  0  0  0  0
    9.4049    2.5485    0.0000 C   0  0  0  0  0  0  0  0  0  0  0  0
    8.5079    1.3463    0.0000 C   0  0  0  0  0  0  0  0  0  0  0  0
    7.0182    1.5220    0.0000 S   0  0  0  0  0  0  0  0  0  0  0  0
    7.1939    3.0116    0.0000 O   0  0  0  0  0  0  0  0  0  0  0  0
    6.8425    0.0323    0.0000 O   0  0  0  0  0  0  0  0  0  0  0  0
    5.5285    1.6976    0.0000 O   0  0  0  0  0  0  0  0  0  0  0  0
    9.1006   -0.0317    0.0000 C   0  0  0  0  0  0  0  0  0  0  0  0
    3.7346   -0.7069    0.0000 C   0  0  0  0  0  0  0  0  0  0  0  0
    4.6316    0.4954    0.0000 C   0  0  0  0  0  0  0  0  0  0  0  0
    2.2449   -0.5312    0.0000 C   0  0  0  0  0  0  0  0  0  0  0  0
   -0.7345   -0.1798    0.0000 C   0  0  0  0  0  0  0  0  0  0  0  0
   -2.2241   -0.0042    0.0000 C   0  0  0  0  0  0  0  0  0  0  0  0
   -2.8168    1.3738    0.0000 C   0  0  0  0  0  0  0  0  0  0  0  0
   -7.5901   -0.6794    0.0000 C   0  0  0  0  0  0  0  0  0  0  0  0
   -9.0798   -0.5037    0.0000 C   0  0  0  0  0  0  0  0  0  0  0  0
  -14.1415    1.4013    0.0000 C   0  0  0  0  0  0  0  0  0  0  0  0
  -14.7342    2.7792    0.0000 C   0  0  0  0  0  0  0  0  0  0  0  0
  1  2  1  0
  2  3  2  0
  3  4  1  0
  4  5  2  0
  5  6  1  0
  6  7  2  0
  6  8  2  0
  6  9  1  0
  9 10  1  0
 10 11  2  0
 11 12  1  0
 12 13  2  0
 13 14  1  0
 14 15  2  0
 15 16  1  0
 16 17  2  0
 17 18  1  0
 18 19  2  0
 19 20  1  0
 20 21  2  0
 21 22  1  0
 22 23  2  0
 23 24  1  0
 24 25  2  0
 25 26  1  0
 26 27  2  0
 27 28  1  0
 27 29  1  0
 29 30  2  0
 30 31  1  0
 31 32  2  0
 32 33  1  0
 33 34  1  0
 34 35  2  0
 34 36  2  0
 34 37  1  0
 33 38  2  0
 38 39  1  0
 39 40  1  0
 40 41  2  0
 40 42  2  0
 40 43  1  0
 39 44  2  0
 23 45  1  0
 45 46  1  0
 45 47  2  0
 19 48  1  0
 48 49  2  0
 49 50  1  0
 13 51  1  0
 51 52  2  0
  5 53  1  0
 53 54  2  0
 54  2  1  0
 52 10  1  0
 49 16  1  0
 47 20  1  0
 44 26  1  0
 44 31  1  0
M  END
> <Identifier>
Drug_34

> <Carcinogen>
1

$$$$

     RDKit          2D

 60 65  0  0  0  0  0  0  0  0999 V2000
   -2.3296    4.1376    0.0000 C   0  0  0  0  0  0  0  0  0  0  0  0
   -3.2898    2.9852    0.0000 O   0  0  0  0  0  0  0  0  0  0  0  0
   -2.7719    1.5774    0.0000 C   0  0  0  0  0  0  0  0  0  0  0  0
   -1.2938    1.3221    0.0000 C   0  0  0  0  0  0  0  0  0  0  0  0
   -0.7759   -0.0857    0.0000 C   0  0  0  0  0  0  0  0  0  0  0  0
    0.7022   -0.3410    0.0000 C   0  0  0  0  0  0  0  0  0  0  0  0
    1.2201   -1.7488    0.0000 C   0  0  0  0  0  0  0  0  0  0  0  0
    2.6982   -2.0041    0.0000 C   0  0  0  0  0  0  0  0  0  0  0  0
    3.6584   -0.8517    0.0000 C   0  0  0  0  0  0  0  0  0  0  0  0
    5.1365   -1.1071    0.0000 N   0  0  0  0  0  0  0  0  0  0  0  0
    6.0967    0.0453    0.0000 N   0  0  0  0  0  0  0  0  0  0  0  0
    7.5748   -0.2100    0.0000 C   0  0  0  0  0  0  0  0  0  0  0  0
    8.0927   -1.6178    0.0000 C   0  0  0  0  0  0  0  0  0  0  0  0
    7.1325   -2.7702    0.0000 S   0  0  0  0  0  0  0  0  0  0  0  0
    8.2849   -3.7304    0.0000 O   0  0  0  0  0  0  0  0  0  0  0  0
    5.9801   -1.8100    0.0000 O   0  0  0  0  0  0  0  0  0  0  0  0
    6.1723   -3.9226    0.0000 O   0  0  0  0  0  0  0  0  0  0  0  0
    9.5708   -1.8731    0.0000 C   0  0  0  0  0  0  0  0  0  0  0  0
   10.5310   -0.7207    0.0000 C   0  0  0  0  0  0  0  0  0  0  0  0
   12.0091   -0.9761    0.0000 C   0  0  0  0  0  0  0  0  0  0  0  0
   12.9693    0.1763    0.0000 C   0  0  0  0  0  0  0  0  0  0  0  0
   14.4474   -0.0790    0.0000 S   0  0  0  0  0  0  0  0  0  0  0  0
   14.1921   -1.5572    0.0000 O   0  0  0  0  0  0  0  0  0  0  0  0
   14.7028    1.3991    0.0000 O   0  0  0  0  0  0  0  0  0  0  0  0
   15.9255   -0.3344    0.0000 O   0  0  0  0  0  0  0  0  0  0  0  0
   12.4514    1.5841    0.0000 C   0  0  0  0  0  0  0  0  0  0  0  0
   10.9733    1.8394    0.0000 C   0  0  0  0  0  0  0  0  0  0  0  0
   10.4554    3.2472    0.0000 N   0  0  0  0  0  0  0  0  0  0  0  0
   10.0131    0.6870    0.0000 C   0  0  0  0  0  0  0  0  0  0  0  0
    8.5350    0.9424    0.0000 C   0  0  0  0  0  0  0  0  0  0  0  0
    8.0171    2.3501    0.0000 O   0  0  0  0  0  0  0  0  0  0  0  0
    3.1405    0.5560    0.0000 C   0  0  0  0  0  0  0  0  0  0  0  0
    4.1007    1.7084    0.0000 O   0  0  0  0  0  0  0  0  0  0  0  0
    3.5828    3.1162    0.0000 C   0  0  0  0  0  0  0  0  0  0  0  0
    1.6624    0.8114    0.0000 C   0  0  0  0  0  0  0  0  0  0  0  0
   -1.7361   -1.2381    0.0000 C   0  0  0  0  0  0  0  0  0  0  0  0
   -3.2142   -0.9827    0.0000 C   0  0  0  0  0  0  0  0  0  0  0  0
   -3.7321    0.4250    0.0000 C   0  0  0  0  0  0  0  0  0  0  0  0
   -5.2102    0.6804    0.0000 N   0  0  0  0  0  0  0  0  0  0  0  0
   -6.1704   -0.4720    0.0000 N   0  0  0  0  0  0  0  0  0  0  0  0
   -7.6485   -0.2167    0.0000 C   0  0  0  0  0  0  0  0  0  0  0  0
   -8.1664    1.1911    0.0000 C   0  0  0  0  0  0  0  0  0  0  0  0
   -7.2062    2.3435    0.0000 S   0  0  0  0  0  0  0  0  0  0  0  0
   -8.3586    3.3037    0.0000 O   0  0  0  0  0  0  0  0  0  0  0  0
   -6.0538    1.3833    0.0000 O   0  0  0  0  0  0  0  0  0  0  0  0
   -6.2460    3.4959    0.0000 O   0  0  0  0  0  0  0  0  0  0  0  0
   -9.6445    1.4464    0.0000 C   0  0  0  0  0  0  0  0  0  0  0  0
  -10.6047    0.2940    0.0000 C   0  0  0  0  0  0  0  0  0  0  0  0
  -12.0828    0.5494    0.0000 C   0  0  0  0  0  0  0  0  0  0  0  0
  -13.0430   -0.6030    0.0000 C   0  0  0  0  0  0  0  0  0  0  0  0
  -14.5211   -0.3476    0.0000 S   0  0  0  0  0  0  0  0  0  0  0  0
  -14.2658    1.1305    0.0000 O   0  0  0  0  0  0  0  0  0  0  0  0
  -14.7765   -1.8258    0.0000 O   0  0  0  0  0  0  0  0  0  0  0  0
  -15.9992   -0.0923    0.0000 O   0  0  0  0  0  0  0  0  0  0  0  0
  -12.5251   -2.0108    0.0000 C   0  0  0  0  0  0  0  0  0  0  0  0
  -11.0470   -2.2661    0.0000 C   0  0  0  0  0  0  0  0  0  0  0  0
  -10.5291   -3.6739    0.0000 N   0  0  0  0  0  0  0  0  0  0  0  0
  -10.0868   -1.1137    0.0000 C   0  0  0  0  0  0  0  0  0  0  0  0
   -8.6087   -1.3691    0.0000 C   0  0  0  0  0  0  0  0  0  0  0  0
   -8.0908   -2.7768    0.0000 O   0  0  0  0  0  0  0  0  0  0  0  0
  1  2  1  0
  2  3  1  0
  3  4  2  0
  4  5  1  0
  5  6  1  0
  6  7  2  0
  7  8  1  0
  8  9  2  0
  9 10  1  0
 10 11  2  0
 11 12  1  0
 12 13  2  0
 13 14  1  0
 14 15  2  0
 14 16  2  0
 14 17  1  0
 13 18  1  0
 18 19  2  0
 19 20  1  0
 20 21  2  0
 21 22  1  0
 22 23  2  0
 22 24  2  0
 22 25  1  0
 21 26  1  0
 26 27  2  0
 27 28  1  0
 27 29  1  0
 29 30  2  0
 30 31  1  0
  9 32  1  0
 32 33  1  0
 33 34  1  0
 32 35  2  0
  5 36  2  0
 36 37  1  0
 37 38  2  0
 38 39  1  0
 39 40  2  0
 40 41  1  0
 41 42  2  0
 42 43  1  0
 43 44  2  0
 43 45  2  0
 43 46  1  0
 42 47  1  0
 47 48  2  0
 48 49  1  0
 49 50  2  0
 50 51  1  0
 51 52  2  0
 51 53  2  0
 51 54  1  0
 50 55  1  0
 55 56  2  0
 56 57  1  0
 56 58  1  0
 58 59  2  0
 59 60  1  0
 38  3  1  0
 59 41  1  0
 35  6  1  0
 58 48  1  0
 30 12  1  0
 29 19  1  0
M  END
> <Identifier>
Drug_35

> <Carcinogen>
1

$$$$

     RDKit          2D

 12 12  0  0  0  0  0  0  0  0999 V2000
   -2.3750   -2.5981    0.0000 C   0  0  0  0  0  0  0  0  0  0  0  0
   -1.6250   -1.2990    0.0000 C   0  0  0  0  0  0  0  0  0  0  0  0
   -2.3750    0.0000    0.0000 C   0  0  0  0  0  0  0  0  0  0  0  0
   -1.6250    1.2990    0.0000 C   0  0  0  0  0  0  0  0  0  0  0  0
   -2.3750    2.5981    0.0000 C   0  0  0  0  0  0  0  0  0  0  0  0
   -0.1250    1.2990    0.0000 C   0  0  0  0  0  0  0  0  0  0  0  0
    0.6250   -0.0000    0.0000 C   0  0  0  0  0  0  0  0  0  0  0  0
    2.1250   -0.0000    0.0000 S   0  0  0  0  0  0  0  0  0  0  0  0
    2.1250   -1.5000    0.0000 O   0  0  0  0  0  0  0  0  0  0  0  0
    2.1250    1.5000    0.0000 O   0  0  0  0  0  0  0  0  0  0  0  0
    3.6250    0.0000    0.0000 O   0  0  0  0  0  0  0  0  0  0  0  0
   -0.1250   -1.2990    0.0000 C   0  0  0  0  0  0  0  0  0  0  0  0
  1  2  1  0
  2  3  2  0
  3  4  1  0
  4  5  1  0
  4  6  2  0
  6  7  1  0
  7  8  1  0
  8  9  2  0
  8 10  2  0
  8 11  1  0
  7 12  2  0
 12  2  1  0
M  END
> <Identifier>
Drug_36

> <Carcinogen>
1

$$$$

     RDKit          2D

 58 63  0  0  0  0  0  0  0  0999 V2000
  -10.5062   -3.5525    0.0000 N   0  0  0  0  0  0  0  0  0  0  0  0
  -11.0247   -2.1449    0.0000 C   0  0  0  0  0  0  0  0  0  0  0  0
  -12.5029   -1.8901    0.0000 C   0  0  0  0  0  0  0  0  0  0  0  0
  -13.0213   -0.4825    0.0000 C   0  0  0  0  0  0  0  0  0  0  0  0
  -14.4995   -0.2277    0.0000 S   0  0  0  0  0  0  0  0  0  0  0  0
  -14.2446    1.2505    0.0000 O   0  0  0  0  0  0  0  0  0  0  0  0
  -14.7543   -1.7059    0.0000 O   0  0  0  0  0  0  0  0  0  0  0  0
  -15.9777    0.0271    0.0000 O   0  0  0  0  0  0  0  0  0  0  0  0
  -12.0615    0.6702    0.0000 C   0  0  0  0  0  0  0  0  0  0  0  0
  -10.5833    0.4154    0.0000 C   0  0  0  0  0  0  0  0  0  0  0  0
   -9.6235    1.5681    0.0000 C   0  0  0  0  0  0  0  0  0  0  0  0
   -8.1453    1.3133    0.0000 C   0  0  0  0  0  0  0  0  0  0  0  0
   -7.1855    2.4660    0.0000 S   0  0  0  0  0  0  0  0  0  0  0  0
   -8.3382    3.4258    0.0000 O   0  0  0  0  0  0  0  0  0  0  0  0
   -6.0328    1.5062    0.0000 O   0  0  0  0  0  0  0  0  0  0  0  0
   -6.2257    3.6188    0.0000 O   0  0  0  0  0  0  0  0  0  0  0  0
   -7.6269   -0.0943    0.0000 C   0  0  0  0  0  0  0  0  0  0  0  0
   -6.1487   -0.3491    0.0000 N   0  0  0  0  0  0  0  0  0  0  0  0
   -5.1889    0.8036    0.0000 N   0  0  0  0  0  0  0  0  0  0  0  0
   -3.7107    0.5488    0.0000 C   0  0  0  0  0  0  0  0  0  0  0  0
   -3.1923   -0.8588    0.0000 C   0  0  0  0  0  0  0  0  0  0  0  0
   -1.7141   -1.1136    0.0000 C   0  0  0  0  0  0  0  0  0  0  0  0
   -0.7543    0.0391    0.0000 C   0  0  0  0  0  0  0  0  0  0  0  0
    0.7239   -0.2157    0.0000 C   0  0  0  0  0  0  0  0  0  0  0  0
    1.2423   -1.6233    0.0000 C   0  0  0  0  0  0  0  0  0  0  0  0
    2.7205   -1.8781    0.0000 C   0  0  0  0  0  0  0  0  0  0  0  0
    3.6803   -0.7254    0.0000 C   0  0  0  0  0  0  0  0  0  0  0  0
    5.1585   -0.9802    0.0000 N   0  0  0  0  0  0  0  0  0  0  0  0
    6.1183    0.1726    0.0000 N   0  0  0  0  0  0  0  0  0  0  0  0
    7.5964   -0.0823    0.0000 C   0  0  0  0  0  0  0  0  0  0  0  0
    8.1149   -1.4898    0.0000 C   0  0  0  0  0  0  0  0  0  0  0  0
    7.1551   -2.6426    0.0000 S   0  0  0  0  0  0  0  0  0  0  0  0
    8.3078   -3.6024    0.0000 O   0  0  0  0  0  0  0  0  0  0  0  0
    6.0023   -1.6828    0.0000 O   0  0  0  0  0  0  0  0  0  0  0  0
    6.1953   -3.7953    0.0000 O   0  0  0  0  0  0  0  0  0  0  0  0
    9.5931   -1.7447    0.0000 C   0  0  0  0  0  0  0  0  0  0  0  0
   10.5528   -0.5919    0.0000 C   0  0  0  0  0  0  0  0  0  0  0  0
   12.0310   -0.8468    0.0000 C   0  0  0  0  0  0  0  0  0  0  0  0
   12.9908    0.3060    0.0000 C   0  0  0  0  0  0  0  0  0  0  0  0
   14.4690    0.0511    0.0000 S   0  0  0  0  0  0  0  0  0  0  0  0
   14.2142   -1.4271    0.0000 O   0  0  0  0  0  0  0  0  0  0  0  0
   14.7238    1.5293    0.0000 O   0  0  0  0  0  0  0  0  0  0  0  0
   15.9472   -0.2037    0.0000 O   0  0  0  0  0  0  0  0  0  0  0  0
   12.4724    1.7135    0.0000 C   0  0  0  0  0  0  0  0  0  0  0  0
   10.9942    1.9684    0.0000 C   0  0  0  0  0  0  0  0  0  0  0  0
   10.4758    3.3759    0.0000 N   0  0  0  0  0  0  0  0  0  0  0  0
   10.0344    0.8156    0.0000 C   0  0  0  0  0  0  0  0  0  0  0  0
    8.5562    1.0705    0.0000 C   0  0  0  0  0  0  0  0  0  0  0  0
    8.0378    2.4780    0.0000 O   0  0  0  0  0  0  0  0  0  0  0  0
    3.1619    0.6822    0.0000 C   0  0  0  0  0  0  0  0  0  0  0  0
    4.1216    1.8349    0.0000 O   0  0  0  0  0  0  0  0  0  0  0  0
    1.6837    0.9370    0.0000 C   0  0  0  0  0  0  0  0  0  0  0  0
   -1.2727    1.4467    0.0000 C   0  0  0  0  0  0  0  0  0  0  0  0
   -2.7509    1.7015    0.0000 C   0  0  0  0  0  0  0  0  0  0  0  0
   -3.2693    3.1091    0.0000 O   0  0  0  0  0  0  0  0  0  0  0  0
   -8.5867   -1.2470    0.0000 C   0  0  0  0  0  0  0  0  0  0  0  0
   -8.0683   -2.6546    0.0000 O   0  0  0  0  0  0  0  0  0  0  0  0
  -10.0649   -0.9922    0.0000 C   0  0  0  0  0  0  0  0  0  0  0  0
  1  2  1  0
  2  3  2  0
  3  4  1  0
  4  5  1  0
  5  6  2  0
  5  7  2  0
  5  8  1  0
  4  9  2  0
  9 10  1  0
 10 11  2  0
 11 12  1  0
 12 13  1  0
 13 14  2  0
 13 15  2  0
 13 16  1  0
 12 17  2  0
 17 18  1  0
 18 19  2  0
 19 20  1  0
 20 21  2  0
 21 22  1  0
 22 23  2  0
 23 24  1  0
 24 25  2  0
 25 26  1  0
 26 27  2  0
 27 28  1  0
 28 29  2  0
 29 30  1  0
 30 31  2  0
 31 32  1  0
 32 33  2  0
 32 34  2  0
 32 35  1  0
 31 36  1  0
 36 37  2  0
 37 38  1  0
 38 39  2  0
 39 40  1  0
 40 41  2  0
 40 42  2  0
 40 43  1  0
 39 44  1  0
 44 45  2  0
 45 46  1  0
 45 47  1  0
 47 48  2  0
 48 49  1  0
 27 50  1  0
 50 51  1  0
 50 52  2  0
 23 53  1  0
 53 54  2  0
 54 55  1  0
 17 56  1  0
 56 57  1  0
 56 58  2  0
 58  2  1  0
 58 10  1  0
 54 20  1  0
 52 24  1  0
 48 30  1  0
 47 37  1  0
M  END
> <Identifier>
Drug_37

> <Carcinogen>
1

$$$$

     RDKit          2D

 15 15  0  0  0  0  0  0  0  0999 V2000
   -5.2168    0.8862    0.0000 C   0  0  0  0  0  0  0  0  0  0  0  0
   -4.2633   -0.2718    0.0000 N   0  0  0  0  0  0  0  0  0  0  0  0
   -4.7895   -1.6765    0.0000 C   0  0  0  0  0  0  0  0  0  0  0  0
   -2.7838   -0.0251    0.0000 C   0  0  0  0  0  0  0  0  0  0  0  0
   -2.2576    1.3796    0.0000 C   0  0  0  0  0  0  0  0  0  0  0  0
   -0.7780    1.6262    0.0000 C   0  0  0  0  0  0  0  0  0  0  0  0
    0.1754    0.4682    0.0000 C   0  0  0  0  0  0  0  0  0  0  0  0
    1.6550    0.7149    0.0000 N   0  0  0  0  0  0  0  0  0  0  0  0
    2.6084   -0.4431    0.0000 N   0  0  0  0  0  0  0  0  0  0  0  0
    4.0880   -0.1964    0.0000 S   0  0  0  0  0  0  0  0  0  0  0  0
    4.3346   -1.6760    0.0000 O   0  0  0  0  0  0  0  0  0  0  0  0
    3.8413    1.2832    0.0000 O   0  0  0  0  0  0  0  0  0  0  0  0
    5.5675    0.0503    0.0000 O   0  0  0  0  0  0  0  0  0  0  0  0
   -0.3508   -0.9365    0.0000 C   0  0  0  0  0  0  0  0  0  0  0  0
   -1.8303   -1.1831    0.0000 C   0  0  0  0  0  0  0  0  0  0  0  0
  1  2  1  0
  2  3  1  0
  2  4  1  0
  4  5  2  0
  5  6  1  0
  6  7  2  0
  7  8  1  0
  8  9  2  0
  9 10  1  0
 10 11  2  0
 10 12  2  0
 10 13  1  0
  7 14  1  0
 14 15  2  0
 15  4  1  0
M  END
> <Identifier>
Drug_38

> <Carcinogen>
1

$$$$

     RDKit          2D

 21 22  0  0  0  0  0  0  0  0999 V2000
   -1.5178    2.6526    0.0000 C   0  0  0  0  0  0  0  0  0  0  0  0
   -0.5390    1.5160    0.0000 C   0  0  0  0  0  0  0  0  0  0  0  0
   -0.8831    0.0560    0.0000 C   0  0  0  0  0  0  0  0  0  0  0  0
   -2.2666   -0.5237    0.0000 N   0  0  0  0  0  0  0  0  0  0  0  0
   -2.4562   -2.0117    0.0000 C   0  0  0  0  0  0  0  0  0  0  0  0
   -3.4603    0.3845    0.0000 C   0  0  0  0  0  0  0  0  0  0  0  0
   -4.8438   -0.1953    0.0000 S   0  0  0  0  0  0  0  0  0  0  0  0
   -5.4235    1.1882    0.0000 O   0  0  0  0  0  0  0  0  0  0  0  0
   -4.2640   -1.5787    0.0000 O   0  0  0  0  0  0  0  0  0  0  0  0
   -6.2272   -0.7750    0.0000 O   0  0  0  0  0  0  0  0  0  0  0  0
    0.3991   -0.7225    0.0000 C   0  0  0  0  0  0  0  0  0  0  0  0
    0.5229   -2.2173    0.0000 O   0  0  0  0  0  0  0  0  0  0  0  0
    1.5356    0.2564    0.0000 N   0  0  0  0  0  0  0  0  0  0  0  0
    2.9956   -0.0877    0.0000 C   0  0  0  0  0  0  0  0  0  0  0  0
    3.4276   -1.5242    0.0000 C   0  0  0  0  0  0  0  0  0  0  0  0
    4.8876   -1.8683    0.0000 C   0  0  0  0  0  0  0  0  0  0  0  0
    5.9156   -0.7760    0.0000 C   0  0  0  0  0  0  0  0  0  0  0  0
    5.4837    0.6604    0.0000 C   0  0  0  0  0  0  0  0  0  0  0  0
    4.0237    1.0046    0.0000 C   0  0  0  0  0  0  0  0  0  0  0  0
    0.9559    1.6398    0.0000 N   0  0  0  0  0  0  0  0  0  0  0  0
    1.7344    2.9220    0.0000 C   0  0  0  0  0  0  0  0  0  0  0  0
  1  2  1  0
  2  3  2  0
  3  4  1  0
  4  5  1  0
  4  6  1  0
  6  7  1  0
  7  8  2  0
  7  9  2  0
  7 10  1  0
  3 11  1  0
 11 12  2  0
 11 13  1  0
 13 14  1  0
 14 15  2  0
 15 16  1  0
 16 17  2  0
 17 18  1  0
 18 19  2  0
 13 20  1  0
 20 21  1  0
 20  2  1  0
 19 14  1  0
M  END
> <Identifier>
Drug_39

> <Carcinogen>
1

$$$$

     RDKit          2D

 51 55  0  0  0  0  0  0  0  0999 V2000
   -6.1365   -6.7807    0.0000 C   0  0  0  0  0  0  0  0  0  0  0  0
   -6.7526   -5.4130    0.0000 C   0  0  0  0  0  0  0  0  0  0  0  0
   -8.2451   -5.2628    0.0000 O   0  0  0  0  0  0  0  0  0  0  0  0
   -5.8763   -4.1956    0.0000 N   0  0  0  0  0  0  0  0  0  0  0  0
   -6.4924   -2.8280    0.0000 C   0  0  0  0  0  0  0  0  0  0  0  0
   -7.9848   -2.6778    0.0000 C   0  0  0  0  0  0  0  0  0  0  0  0
   -8.6010   -1.3101    0.0000 C   0  0  0  0  0  0  0  0  0  0  0  0
   -7.7246   -0.0928    0.0000 C   0  0  0  0  0  0  0  0  0  0  0  0
   -8.3407    1.2749    0.0000 S   0  0  0  0  0  0  0  0  0  0  0  0
   -9.7083    0.6588    0.0000 O   0  0  0  0  0  0  0  0  0  0  0  0
   -6.9731    1.8910    0.0000 O   0  0  0  0  0  0  0  0  0  0  0  0
   -8.9568    2.6425    0.0000 O   0  0  0  0  0  0  0  0  0  0  0  0
   -6.2322   -0.2430    0.0000 C   0  0  0  0  0  0  0  0  0  0  0  0
   -5.3558    0.9744    0.0000 C   0  0  0  0  0  0  0  0  0  0  0  0
   -3.8634    0.8241    0.0000 C   0  0  0  0  0  0  0  0  0  0  0  0
   -2.9870    2.0415    0.0000 S   0  0  0  0  0  0  0  0  0  0  0  0
   -4.2044    2.9179    0.0000 O   0  0  0  0  0  0  0  0  0  0  0  0
   -1.7696    1.1652    0.0000 O   0  0  0  0  0  0  0  0  0  0  0  0
   -2.1107    3.2589    0.0000 O   0  0  0  0  0  0  0  0  0  0  0  0
   -3.2472   -0.5435    0.0000 C   0  0  0  0  0  0  0  0  0  0  0  0
   -1.7548   -0.6937    0.0000 N   0  0  0  0  0  0  0  0  0  0  0  0
   -0.8784    0.5236    0.0000 N   0  0  0  0  0  0  0  0  0  0  0  0
    0.6140    0.3734    0.0000 C   0  0  0  0  0  0  0  0  0  0  0  0
    1.2301   -0.9942    0.0000 C   0  0  0  0  0  0  0  0  0  0  0  0
    2.7226   -1.1445    0.0000 C   0  0  0  0  0  0  0  0  0  0  0  0
    3.5989    0.0729    0.0000 C   0  0  0  0  0  0  0  0  0  0  0  0
    5.0914   -0.0774    0.0000 N   0  0  0  0  0  0  0  0  0  0  0  0
    5.7075   -1.4450    0.0000 N   0  0  0  0  0  0  0  0  0  0  0  0
    7.2000   -1.5952    0.0000 C   0  0  0  0  0  0  0  0  0  0  0  0
    7.8161   -2.9629    0.0000 C   0  0  0  0  0  0  0  0  0  0  0  0
    9.3085   -3.1131    0.0000 C   0  0  0  0  0  0  0  0  0  0  0  0
   10.1849   -1.8957    0.0000 C   0  0  0  0  0  0  0  0  0  0  0  0
   11.6773   -2.0460    0.0000 S   0  0  0  0  0  0  0  0  0  0  0  0
   11.5271   -3.5384    0.0000 O   0  0  0  0  0  0  0  0  0  0  0  0
   11.8276   -0.5535    0.0000 O   0  0  0  0  0  0  0  0  0  0  0  0
   13.1698   -2.1962    0.0000 O   0  0  0  0  0  0  0  0  0  0  0  0
    9.5688   -0.5281    0.0000 C   0  0  0  0  0  0  0  0  0  0  0  0
    8.0763   -0.3778    0.0000 C   0  0  0  0  0  0  0  0  0  0  0  0
    2.9828    1.4405    0.0000 C   0  0  0  0  0  0  0  0  0  0  0  0
    3.8592    2.6579    0.0000 C   0  0  0  0  0  0  0  0  0  0  0  0
    3.2431    4.0255    0.0000 C   0  0  0  0  0  0  0  0  0  0  0  0
    1.7506    4.1758    0.0000 C   0  0  0  0  0  0  0  0  0  0  0  0
    1.1345    5.5434    0.0000 S   0  0  0  0  0  0  0  0  0  0  0  0
    2.5021    6.1595    0.0000 O   0  0  0  0  0  0  0  0  0  0  0  0
   -0.2331    4.9273    0.0000 O   0  0  0  0  0  0  0  0  0  0  0  0
    0.5184    6.9110    0.0000 O   0  0  0  0  0  0  0  0  0  0  0  0
    0.8743    2.9584    0.0000 C   0  0  0  0  0  0  0  0  0  0  0  0
    1.4904    1.5908    0.0000 C   0  0  0  0  0  0  0  0  0  0  0  0
   -4.1236   -1.7609    0.0000 C   0  0  0  0  0  0  0  0  0  0  0  0
   -3.5075   -3.1285    0.0000 O   0  0  0  0  0  0  0  0  0  0  0  0
   -5.6160   -1.6106    0.0000 C   0  0  0  0  0  0  0  0  0  0  0  0
  1  2  1  0
  2  3  2  0
  2  4  1  0
  4  5  1  0
  5  6  2  0
  6  7  1  0
  7  8  2  0
  8  9  1  0
  9 10  2  0
  9 11  2  0
  9 12  1  0
  8 13  1  0
 13 14  2  0
 14 15  1  0
 15 16  1  0
 16 17  2  0
 16 18  2  0
 16 19  1  0
 15 20  2  0
 20 21  1  0
 21 22  2  0
 22 23  1  0
 23 24  2  0
 24 25  1  0
 25 26  2  0
 26 27  1  0
 27 28  2  0
 28 29  1  0
 29 30  2  0
 30 31  1  0
 31 32  2  0
 32 33  1  0
 33 34  2  0
 33 35  2  0
 33 36  1  0
 32 37  1  0
 37 38  2  0
 26 39  1  0
 39 40  2  0
 40 41  1  0
 41 42  2  0
 42 43  1  0
 43 44  2  0
 43 45  2  0
 43 46  1  0
 42 47  1  0
 47 48  2  0
 20 49  1  0
 49 50  1  0
 49 51  2  0
 51  5  1  0
 51 13  1  0
 48 23  1  0
 38 29  1  0
 48 39  1  0
M  END
> <Identifier>
Drug_40

> <Carcinogen>
1

$$$$

     RDKit          2D

 51 55  0  0  0  0  0  0  0  0999 V2000
    2.1661   -5.5451    0.0000 C   0  0  0  0  0  0  0  0  0  0  0  0
    3.6660   -5.5649    0.0000 C   0  0  0  0  0  0  0  0  0  0  0  0
    4.4330   -4.2759    0.0000 N   0  0  0  0  0  0  0  0  0  0  0  0
    5.9329   -4.2957    0.0000 C   0  0  0  0  0  0  0  0  0  0  0  0
    6.7000   -3.0066    0.0000 C   0  0  0  0  0  0  0  0  0  0  0  0
    8.1999   -3.0264    0.0000 C   0  0  0  0  0  0  0  0  0  0  0  0
    8.9669   -1.7374    0.0000 C   0  0  0  0  0  0  0  0  0  0  0  0
    8.2341   -0.4286    0.0000 C   0  0  0  0  0  0  0  0  0  0  0  0
    6.7343   -0.4088    0.0000 C   0  0  0  0  0  0  0  0  0  0  0  0
    6.0015    0.9000    0.0000 S   0  0  0  0  0  0  0  0  0  0  0  0
    7.3103    1.6328    0.0000 O   0  0  0  0  0  0  0  0  0  0  0  0
    4.6927    0.1672    0.0000 O   0  0  0  0  0  0  0  0  0  0  0  0
    5.2687    2.2089    0.0000 O   0  0  0  0  0  0  0  0  0  0  0  0
    5.9672   -1.6978    0.0000 C   0  0  0  0  0  0  0  0  0  0  0  0
    3.7003   -2.9671    0.0000 C   0  0  0  0  0  0  0  0  0  0  0  0
    4.4673   -1.6780    0.0000 C   0  0  0  0  0  0  0  0  0  0  0  0
    3.7345   -0.3692    0.0000 C   0  0  0  0  0  0  0  0  0  0  0  0
    2.2347   -0.3494    0.0000 C   0  0  0  0  0  0  0  0  0  0  0  0
    1.5019    0.9594    0.0000 C   0  0  0  0  0  0  0  0  0  0  0  0
    0.0020    0.9792    0.0000 C   0  0  0  0  0  0  0  0  0  0  0  0
   -0.7308    2.2880    0.0000 C   0  0  0  0  0  0  0  0  0  0  0  0
   -2.2307    2.3078    0.0000 C   0  0  0  0  0  0  0  0  0  0  0  0
   -2.9977    1.0188    0.0000 C   0  0  0  0  0  0  0  0  0  0  0  0
   -4.4976    1.0386    0.0000 N   0  0  0  0  0  4  0  0  0  0  0  0
   -5.2304    2.3474    0.0000 C   0  0  0  0  0  0  0  0  0  0  0  0
   -6.7303    2.3672    0.0000 C   0  0  0  0  0  0  0  0  0  0  0  0
   -5.2647   -0.2505    0.0000 C   0  0  0  0  0  0  0  0  0  0  0  0
   -6.7646   -0.2307    0.0000 C   0  0  0  0  0  0  0  0  0  0  0  0
   -7.4974    1.0781    0.0000 C   0  0  0  0  0  0  0  0  0  0  0  0
   -8.9972    1.0979    0.0000 C   0  0  0  0  0  0  0  0  0  0  0  0
   -9.7643   -0.1911    0.0000 C   0  0  0  0  0  0  0  0  0  0  0  0
   -9.0315   -1.4999    0.0000 C   0  0  0  0  0  0  0  0  0  0  0  0
   -9.7986   -2.7889    0.0000 S   0  0  0  0  0  0  0  0  0  0  0  0
  -11.0876   -2.0219    0.0000 O   0  0  0  0  0  0  0  0  0  0  0  0
   -8.5095   -3.5560    0.0000 O   0  0  0  0  0  0  0  0  0  0  0  0
  -10.5656   -4.0780    0.0000 O   0  0  0  0  0  1  0  0  0  0  0  0
   -7.5316   -1.5197    0.0000 C   0  0  0  0  0  0  0  0  0  0  0  0
   -2.2649   -0.2900    0.0000 C   0  0  0  0  0  0  0  0  0  0  0  0
   -0.7651   -0.3098    0.0000 C   0  0  0  0  0  0  0  0  0  0  0  0
    2.2689    2.2484    0.0000 C   0  0  0  0  0  0  0  0  0  0  0  0
    3.7688    2.2286    0.0000 C   0  0  0  0  0  0  0  0  0  0  0  0
    4.5359    3.5177    0.0000 C   0  0  0  0  0  0  0  0  0  0  0  0
    3.8031    4.8265    0.0000 C   0  0  0  0  0  0  0  0  0  0  0  0
    2.3032    4.8463    0.0000 C   0  0  0  0  0  0  0  0  0  0  0  0
    1.5361    3.5573    0.0000 C   0  0  0  0  0  0  0  0  0  0  0  0
    0.0363    3.5770    0.0000 S   0  0  0  0  0  0  0  0  0  0  0  0
   -0.1668    2.8062    0.0000 O   0  0  0  0  0  0  0  0  0  0  0  0
    0.0561    5.0769    0.0000 O   0  0  0  0  0  0  0  0  0  0  0  0
   -1.4636    3.5968    0.0000 O   0  0  0  0  0  0  0  0  0  0  0  0
    1.4676   -1.6384    0.0000 C   0  0  0  0  0  0  0  0  0  0  0  0
    2.2004   -2.9473    0.0000 C   0  0  0  0  0  0  0  0  0  0  0  0
  1  2  1  0
  2  3  1  0
  3  4  1  0
  4  5  1  0
  5  6  2  0
  6  7  1  0
  7  8  2  0
  8  9  1  0
  9 10  1  0
 10 11  2  0
 10 12  2  0
 10 13  1  0
  9 14  2  0
  3 15  1  0
 15 16  2  0
 16 17  1  0
 17 18  2  0
 18 19  1  0
 19 20  2  0
 20 21  1  0
 21 22  2  0
 22 23  1  0
 23 24  2  0
 24 25  1  0
 25 26  1  0
 24 27  1  0
 27 28  1  0
 28 29  2  0
 29 30  1  0
 30 31  2  0
 31 32  1  0
 32 33  1  0
 33 34  2  0
 33 35  2  0
 33 36  1  0
 32 37  2  0
 23 38  1  0
 38 39  2  0
 19 40  1  0
 40 41  2  0
 41 42  1  0
 42 43  2  0
 43 44  1  0
 44 45  2  0
 45 46  1  0
 46 47  2  0
 46 48  2  0
 46 49  1  0
 18 50  1  0
 50 51  2  0
 14  5  1  0
 51 15  1  0
 39 20  1  0
 45 40  1  0
 37 28  1  0
M  CHG  2  24   1  36  -1
M  END
> <Identifier>
Drug_41

> <Carcinogen>
1

$$$$

     RDKit          2D

 28 31  0  0  0  0  0  0  0  0999 V2000
    1.5708    2.4223    0.0000 O   0  0  0  0  0  0  0  0  0  0  0  0
    1.8030    0.9403    0.0000 C   0  0  0  0  0  0  0  0  0  0  0  0
    0.7406   -0.1186    0.0000 C   0  0  0  0  0  0  0  0  0  0  0  0
   -0.7406    0.1186    0.0000 C   0  0  0  0  0  0  0  0  0  0  0  0
   -1.4193    1.4562    0.0000 N   0  0  0  0  0  0  0  0  0  0  0  0
   -2.9013    1.2240    0.0000 C   0  0  0  0  0  0  0  0  0  0  0  0
   -4.0654    2.1699    0.0000 C   0  0  0  0  0  0  0  0  0  0  0  0
   -5.4667    1.6347    0.0000 C   0  0  0  0  0  0  0  0  0  0  0  0
   -5.7038    0.1535    0.0000 C   0  0  0  0  0  0  0  0  0  0  0  0
   -7.1050   -0.3817    0.0000 S   0  0  0  0  0  0  0  0  0  0  0  0
   -7.6403    1.0196    0.0000 O   0  0  0  0  0  0  0  0  0  0  0  0
   -6.5698   -1.7829    0.0000 O   0  0  0  0  0  0  0  0  0  0  0  0
   -8.5063   -0.9169    0.0000 O   0  0  0  0  0  0  0  0  0  0  0  0
   -4.5396   -0.7924    0.0000 C   0  0  0  0  0  0  0  0  0  0  0  0
   -3.1384   -0.2571    0.0000 C   0  0  0  0  0  0  0  0  0  0  0  0
   -1.8030   -0.9403    0.0000 C   0  0  0  0  0  0  0  0  0  0  0  0
   -1.5708   -2.4223    0.0000 O   0  0  0  0  0  0  0  0  0  0  0  0
    1.4193   -1.4562    0.0000 N   0  0  0  0  0  0  0  0  0  0  0  0
    2.9013   -1.2240    0.0000 C   0  0  0  0  0  0  0  0  0  0  0  0
    4.0654   -2.1699    0.0000 C   0  0  0  0  0  0  0  0  0  0  0  0
    5.4667   -1.6347    0.0000 C   0  0  0  0  0  0  0  0  0  0  0  0
    5.7038   -0.1535    0.0000 C   0  0  0  0  0  0  0  0  0  0  0  0
    7.1050    0.3817    0.0000 S   0  0  0  0  0  0  0  0  0  0  0  0
    7.6403   -1.0196    0.0000 O   0  0  0  0  0  0  0  0  0  0  0  0
    6.5698    1.7829    0.0000 O   0  0  0  0  0  0  0  0  0  0  0  0
    8.5063    0.9169    0.0000 O   0  0  0  0  0  0  0  0  0  0  0  0
    4.5396    0.7924    0.0000 C   0  0  0  0  0  0  0  0  0  0  0  0
    3.1384    0.2571    0.0000 C   0  0  0  0  0  0  0  0  0  0  0  0
  1  2  2  0
  2  3  1  0
  3  4  2  0
  4  5  1  0
  5  6  1  0
  6  7  2  0
  7  8  1  0
  8  9  2  0
  9 10  1  0
 10 11  2  0
 10 12  2  0
 10 13  1  0
  9 14  1  0
 14 15  2  0
 15 16  1  0
 16 17  2  0
  3 18  1  0
 18 19  1  0
 19 20  2  0
 20 21  1  0
 21 22  2  0
 22 23  1  0
 23 24  2  0
 23 25  2  0
 23 26  1  0
 22 27  1  0
 27 28  2  0
 28  2  1  0
 16  4  1  0
 28 19  1  0
 15  6  1  0
M  END
> <Identifier>
Drug_42

> <Carcinogen>
1

$$$$

     RDKit          2D

 13 12  0  0  0  0  0  0  0  0999 V2000
    4.9931    0.6041    0.0000 C   0  0  0  0  0  0  0  0  0  0  0  0
    3.6982   -0.1529    0.0000 C   0  0  0  0  0  0  0  0  0  0  0  0
    3.7063   -1.6529    0.0000 O   0  0  0  0  0  0  0  0  0  0  0  0
    2.3950    0.5900    0.0000 C   0  0  0  0  0  0  0  0  0  0  0  0
    1.1001   -0.1671    0.0000 N   0  0  0  0  0  0  0  0  0  0  0  0
   -0.2030    0.5758    0.0000 C   0  0  0  0  0  0  0  0  0  0  0  0
   -0.2112    2.0758    0.0000 O   0  0  0  0  0  0  0  0  0  0  0  0
   -1.4979   -0.1812    0.0000 N   0  0  0  0  0  0  0  0  0  0  0  0
   -1.4898   -1.6812    0.0000 N   0  0  0  0  0  0  0  0  0  0  0  0
   -2.7847   -2.4383    0.0000 O   0  0  0  0  0  0  0  0  0  0  0  0
   -2.8010    0.5617    0.0000 C   0  0  0  0  0  0  0  0  0  0  0  0
   -4.0960   -0.1954    0.0000 C   0  0  0  0  0  0  0  0  0  0  0  0
   -2.8092    2.0617    0.0000 Cl  0  0  0  0  0  0  0  0  0  0  0  0
  1  2  1  0
  2  3  1  0
  2  4  1  0
  4  5  1  0
  5  6  1  0
  6  7  2  0
  6  8  1  0
  8  9  1  0
  9 10  2  0
  8 11  1  0
 11 12  1  0
 11 13  1  0
M  END
> <Identifier>
Drug_43

> <Carcinogen>
1

$$$$

     RDKit          2D

  8  7  0  0  0  0  0  0  0  0999 V2000
   -4.5553   -0.2480    0.0000 C   0  0  0  0  0  0  0  0  0  0  0  0
   -3.2359    0.4655    0.0000 C   0  0  0  0  0  0  0  0  0  0  0  0
   -1.9583   -0.3205    0.0000 C   0  0  0  0  0  0  0  0  0  0  0  0
   -0.6388    0.3930    0.0000 N   0  0  0  0  0  0  0  0  0  0  0  0
    0.6388   -0.3930    0.0000 N   0  0  0  0  0  0  0  0  0  0  0  0
    1.9583    0.3205    0.0000 C   0  0  0  0  0  0  0  0  0  0  0  0
    3.2359   -0.4655    0.0000 C   0  0  0  0  0  0  0  0  0  0  0  0
    4.5553    0.2480    0.0000 C   0  0  0  0  0  0  0  0  0  0  0  0
  1  2  2  0
  2  3  1  0
  3  4  1  0
  4  5  1  0
  5  6  1  0
  6  7  1  0
  7  8  2  0
M  END
> <Identifier>
Drug_44

> <Carcinogen>
1

$$$$

     RDKit          2D

 26 27  0  0  0  0  0  0  0  0999 V2000
    2.2377    3.4620    0.0000 C   0  0  0  0  0  0  0  0  0  0  0  0
    1.0472    2.5493    0.0000 C   0  0  0  0  0  0  0  0  0  0  0  0
    1.2424    1.0621    0.0000 C   0  0  0  0  0  0  0  0  0  0  0  0
    2.6280    0.4875    0.0000 O   0  0  0  0  0  0  0  0  0  0  0  0
    3.8184    1.4001    0.0000 C   0  0  0  0  0  0  0  0  0  0  0  0
    5.2040    0.8255    0.0000 C   0  0  0  0  0  0  0  0  0  0  0  0
    3.6232    2.8874    0.0000 O   0  0  0  0  0  0  0  0  0  0  0  0
    0.0520    0.1495    0.0000 C   0  0  0  0  0  0  0  0  0  0  0  0
   -0.8606    1.3399    0.0000 C   0  0  0  0  0  0  0  0  0  0  0  0
   -2.3479    1.1447    0.0000 C   0  0  0  0  0  0  0  0  0  0  0  0
   -3.2407   -0.0606    0.0000 C   0  0  0  0  0  0  0  0  0  0  0  0
   -3.2605    2.3351    0.0000 N   0  0  0  0  0  0  0  0  0  0  0  0
   -4.7478    2.1400    0.0000 C   0  0  0  0  0  0  0  0  0  0  0  0
   -2.6859    3.7207    0.0000 C   0  0  0  0  0  0  0  0  0  0  0  0
    0.9646   -1.0410    0.0000 C   0  0  0  0  0  0  0  0  0  0  0  0
    0.3900   -2.4265    0.0000 C   0  0  0  0  0  0  0  0  0  0  0  0
    1.3027   -3.6170    0.0000 C   0  0  0  0  0  0  0  0  0  0  0  0
    2.7899   -3.4218    0.0000 C   0  0  0  0  0  0  0  0  0  0  0  0
    3.3645   -2.0362    0.0000 C   0  0  0  0  0  0  0  0  0  0  0  0
    2.4519   -0.8458    0.0000 C   0  0  0  0  0  0  0  0  0  0  0  0
   -1.1384   -0.7632    0.0000 C   0  0  0  0  0  0  0  0  0  0  0  0
   -0.9433   -2.2504    0.0000 C   0  0  0  0  0  0  0  0  0  0  0  0
   -2.1337   -3.1631    0.0000 C   0  0  0  0  0  0  0  0  0  0  0  0
   -3.5193   -2.5885    0.0000 C   0  0  0  0  0  0  0  0  0  0  0  0
   -3.7144   -1.1012    0.0000 C   0  0  0  0  0  0  0  0  0  0  0  0
   -2.5240   -0.1886    0.0000 C   0  0  0  0  0  0  0  0  0  0  0  0
  1  2  1  0
  2  3  1  0
  3  4  1  0
  4  5  1  0
  5  6  1  0
  5  7  2  0
  3  8  1  0
  8  9  1  0
  9 10  1  0
 10 11  1  0
 10 12  1  0
 12 13  1  0
 12 14  1  0
  8 15  1  0
 15 16  2  0
 16 17  1  0
 17 18  2  0
 18 19  1  0
 19 20  2  0
  8 21  1  0
 21 22  2  0
 22 23  1  0
 23 24  2  0
 24 25  1  0
 25 26  2  0
 20 15  1  0
 26 21  1  0
M  END
> <Identifier>
Drug_45

> <Carcinogen>
1

$$$$

     RDKit          2D

 13 12  0  0  0  0  0  0  0  0999 V2000
   -4.8818    0.3819    0.0000 C   0  0  0  0  0  0  0  0  0  0  0  0
   -3.6553   -0.4816    0.0000 N   0  0  0  0  0  0  0  0  0  0  0  0
   -3.7899   -1.9756    0.0000 C   0  0  0  0  0  0  0  0  0  0  0  0
   -2.2942    0.1488    0.0000 C   0  0  0  0  0  0  0  0  0  0  0  0
   -1.0677   -0.7148    0.0000 C   0  0  0  0  0  0  0  0  0  0  0  0
    0.2934   -0.0844    0.0000 N   0  0  0  0  0  0  0  0  0  0  0  0
    1.5199   -0.9479    0.0000 C   0  0  0  0  0  0  0  0  0  0  0  0
    2.8810   -0.3175    0.0000 C   0  0  0  0  0  0  0  0  0  0  0  0
    4.1075   -1.1811    0.0000 N   0  0  0  0  0  0  0  0  0  0  0  0
    5.4686   -0.5507    0.0000 O   0  0  0  0  0  0  0  0  0  0  0  0
    0.4280    1.4096    0.0000 C   0  0  0  0  0  0  0  0  0  0  0  0
    1.7891    2.0400    0.0000 N   0  0  0  0  0  0  0  0  0  0  0  0
   -0.7985    2.2731    0.0000 O   0  0  0  0  0  0  0  0  0  0  0  0
  1  2  1  0
  2  3  1  0
  2  4  1  0
  4  5  1  0
  5  6  1  0
  6  7  1  0
  7  8  1  0
  8  9  1  0
  9 10  2  0
  6 11  1  0
 11 12  1  0
 11 13  2  0
M  END
> <Identifier>
Drug_46

> <Carcinogen>
1

$$$$

     RDKit          2D

 16 15  0  0  0  0  0  0  0  0999 V2000
   -9.5895   -0.2150    0.0000 C   0  0  0  0  0  0  0  0  0  0  0  0
   -8.2710    0.5004    0.0000 C   0  0  0  0  0  0  0  0  0  0  0  0
   -6.9923   -0.2838    0.0000 C   0  0  0  0  0  0  0  0  0  0  0  0
   -5.6739    0.4316    0.0000 C   0  0  0  0  0  0  0  0  0  0  0  0
   -4.3951   -0.3525    0.0000 C   0  0  0  0  0  0  0  0  0  0  0  0
   -3.0767    0.3628    0.0000 C   0  0  0  0  0  0  0  0  0  0  0  0
   -1.7980   -0.4213    0.0000 C   0  0  0  0  0  0  0  0  0  0  0  0
   -0.4795    0.2940    0.0000 C   0  0  0  0  0  0  0  0  0  0  0  0
    0.7992   -0.4901    0.0000 C   0  0  0  0  0  0  0  0  0  0  0  0
    2.1176    0.2253    0.0000 C   0  0  0  0  0  0  0  0  0  0  0  0
    3.3964   -0.5588    0.0000 C   0  0  0  0  0  0  0  0  0  0  0  0
    4.7148    0.1565    0.0000 C   0  0  0  0  0  0  0  0  0  0  0  0
    5.9935   -0.6276    0.0000 N   0  0  0  0  0  0  0  0  0  0  0  0
    7.3120    0.0877    0.0000 C   0  0  0  0  0  0  0  0  0  0  0  0
    7.3517    1.5872    0.0000 N   0  0  0  0  0  0  0  0  0  0  0  0
    8.5907   -0.6964    0.0000 N   0  0  0  0  0  0  0  0  0  0  0  0
  1  2  1  0
  2  3  1  0
  3  4  1  0
  4  5  1  0
  5  6  1  0
  6  7  1  0
  7  8  1  0
  8  9  1  0
  9 10  1  0
 10 11  1  0
 11 12  1  0
 12 13  1  0
 13 14  1  0
 14 15  2  0
 14 16  1  0
M  END
> <Identifier>
Drug_47

> <Carcinogen>
1

$$$$

     RDKit          2D

 25 28  0  0  0  0  0  0  0  0999 V2000
   -6.5732   -0.2586    0.0000 C   0  0  0  0  0  0  0  0  0  0  0  0
   -5.0737   -0.2200    0.0000 C   0  0  0  0  0  0  0  0  0  0  0  0
   -3.5742   -0.1813    0.0000 C   0  0  0  0  0  0  0  0  0  0  0  0
   -3.8739   -1.6510    0.0000 O   0  0  0  0  0  0  0  0  0  0  0  0
   -3.7694    1.3060    0.0000 C   0  0  0  0  0  0  0  0  0  0  0  0
   -2.4153    1.9512    0.0000 C   0  0  0  0  0  0  0  0  0  0  0  0
   -1.3832    0.8628    0.0000 C   0  0  0  0  0  0  0  0  0  0  0  0
   -2.7974    0.3626    0.0000 C   0  0  0  0  0  0  0  0  0  0  0  0
   -2.0994   -0.4552    0.0000 C   0  0  0  0  0  0  0  0  0  0  0  0
   -2.7925   -1.7855    0.0000 C   0  0  0  0  0  0  0  0  0  0  0  0
   -1.3162   -1.7344    0.0000 C   0  0  0  0  0  0  0  0  0  0  0  0
    0.1833   -1.6958    0.0000 C   0  0  0  0  0  0  0  0  0  0  0  0
    0.8996   -0.3778    0.0000 C   0  0  0  0  0  0  0  0  0  0  0  0
    1.6828   -1.6571    0.0000 C   0  0  0  0  0  0  0  0  0  0  0  0
    2.3991   -0.3391    0.0000 C   0  0  0  0  0  0  0  0  0  0  0  0
    3.1823   -1.6184    0.0000 C   0  0  0  0  0  0  0  0  0  0  0  0
    4.6818   -1.5797    0.0000 C   0  0  0  0  0  0  0  0  0  0  0  0
    5.3981   -0.2617    0.0000 C   0  0  0  0  0  0  0  0  0  0  0  0
    6.8976   -0.2230    0.0000 O   0  0  0  0  0  0  0  0  0  0  0  0
    4.6148    1.0175    0.0000 C   0  0  0  0  0  0  0  0  0  0  0  0
    3.1153    0.9788    0.0000 C   0  0  0  0  0  0  0  0  0  0  0  0
    2.3320    2.2581    0.0000 C   0  0  0  0  0  0  0  0  0  0  0  0
    0.8325    2.2194    0.0000 C   0  0  0  0  0  0  0  0  0  0  0  0
    0.1163    0.9015    0.0000 C   0  0  0  0  0  0  0  0  0  0  0  0
   -0.6670    2.1807    0.0000 C   0  0  0  0  0  0  0  0  0  0  0  0
  1  2  3  0
  2  3  1  0
  3  4  1  6
  3  5  1  0
  5  6  1  0
  6  7  1  0
  7  8  1  6
  7  9  1  0
  9 10  1  1
  9 11  1  0
 11 12  1  0
 12 13  1  0
 13 14  1  6
 13 15  1  0
 15 16  2  0
 16 17  1  0
 17 18  2  0
 18 19  1  0
 18 20  1  0
 20 21  2  0
 21 22  1  0
 22 23  1  0
 23 24  1  0
 24 25  1  1
  9  3  1  0
 24 13  1  0
 24  7  1  0
 21 15  1  0
M  END
> <Identifier>
Drug_48

> <Carcinogen>
1

$$$$

     RDKit          2D

 52 56  0  0  0  0  0  0  0  0999 V2000
    1.9383   -5.6951    0.0000 C   0  0  0  0  0  0  0  0  0  0  0  0
    3.4374   -5.7491    0.0000 C   0  0  0  0  0  0  0  0  0  0  0  0
    4.2336   -4.4779    0.0000 N   0  0  0  0  0  0  0  0  0  0  0  0
    5.7327   -4.5319    0.0000 C   0  0  0  0  0  0  0  0  0  0  0  0
    6.5289   -3.2607    0.0000 C   0  0  0  0  0  0  0  0  0  0  0  0
    8.0280   -3.3147    0.0000 C   0  0  0  0  0  0  0  0  0  0  0  0
    8.8242   -2.0435    0.0000 C   0  0  0  0  0  0  0  0  0  0  0  0
    8.1215   -0.7183    0.0000 C   0  0  0  0  0  0  0  0  0  0  0  0
    6.6224   -0.6643    0.0000 C   0  0  0  0  0  0  0  0  0  0  0  0
    5.9197    0.6609    0.0000 S   0  0  0  0  0  0  0  0  0  0  0  0
    7.2449    1.3636    0.0000 O   0  0  0  0  0  0  0  0  0  0  0  0
    4.5945   -0.0419    0.0000 O   0  0  0  0  0  0  0  0  0  0  0  0
    5.2169    1.9861    0.0000 O   0  0  0  0  0  0  0  0  0  0  0  0
    5.8262   -1.9355    0.0000 C   0  0  0  0  0  0  0  0  0  0  0  0
    3.5309   -3.1527    0.0000 C   0  0  0  0  0  0  0  0  0  0  0  0
    4.3271   -1.8815    0.0000 C   0  0  0  0  0  0  0  0  0  0  0  0
    3.6244   -0.5563    0.0000 C   0  0  0  0  0  0  0  0  0  0  0  0
    2.1254   -0.5024    0.0000 C   0  0  0  0  0  0  0  0  0  0  0  0
    1.4226    0.8228    0.0000 C   0  0  0  0  0  0  0  0  0  0  0  0
   -0.0764    0.8768    0.0000 C   0  0  0  0  0  0  0  0  0  0  0  0
   -0.7792    2.2020    0.0000 C   0  0  0  0  0  0  0  0  0  0  0  0
   -2.2782    2.2560    0.0000 C   0  0  0  0  0  0  0  0  0  0  0  0
   -3.0745    0.9848    0.0000 C   0  0  0  0  0  0  0  0  0  0  0  0
   -4.5735    1.0388    0.0000 N   0  0  0  0  0  4  0  0  0  0  0  0
   -5.2763    2.3640    0.0000 C   0  0  0  0  0  0  0  0  0  0  0  0
   -6.7753    2.4179    0.0000 C   0  0  0  0  0  0  0  0  0  0  0  0
   -5.3698   -0.2324    0.0000 C   0  0  0  0  0  0  0  0  0  0  0  0
   -6.8688   -0.1785    0.0000 C   0  0  0  0  0  0  0  0  0  0  0  0
   -7.5716    1.1467    0.0000 C   0  0  0  0  0  0  0  0  0  0  0  0
   -9.0706    1.2007    0.0000 C   0  0  0  0  0  0  0  0  0  0  0  0
   -9.8669   -0.0705    0.0000 C   0  0  0  0  0  0  0  0  0  0  0  0
   -9.1641   -1.3957    0.0000 C   0  0  0  0  0  0  0  0  0  0  0  0
   -9.9604   -2.6669    0.0000 S   0  0  0  0  0  0  0  0  0  0  0  0
  -11.2316   -1.8706    0.0000 O   0  0  0  0  0  0  0  0  0  0  0  0
   -8.6892   -3.4631    0.0000 O   0  0  0  0  0  0  0  0  0  0  0  0
  -10.7566   -3.9381    0.0000 O   0  0  0  0  0  1  0  0  0  0  0  0
   -7.6651   -1.4497    0.0000 C   0  0  0  0  0  0  0  0  0  0  0  0
   -2.3717   -0.3404    0.0000 C   0  0  0  0  0  0  0  0  0  0  0  0
   -0.8727   -0.3944    0.0000 C   0  0  0  0  0  0  0  0  0  0  0  0
    2.2189    2.0940    0.0000 C   0  0  0  0  0  0  0  0  0  0  0  0
    3.7179    2.0400    0.0000 C   0  0  0  0  0  0  0  0  0  0  0  0
    4.5142    3.3113    0.0000 C   0  0  0  0  0  0  0  0  0  0  0  0
    3.8114    4.6364    0.0000 C   0  0  0  0  0  0  0  0  0  0  0  0
    4.6077    5.9076    0.0000 O   0  0  0  0  0  0  0  0  0  0  0  0
    2.3124    4.6904    0.0000 C   0  0  0  0  0  0  0  0  0  0  0  0
    1.5161    3.4192    0.0000 C   0  0  0  0  0  0  0  0  0  0  0  0
    0.0171    3.4732    0.0000 S   0  0  0  0  0  0  0  0  0  0  0  0
    0.3274    2.0057    0.0000 O   0  0  0  0  0  0  0  0  0  0  0  0
    0.0711    4.9722    0.0000 O   0  0  0  0  0  0  0  0  0  0  0  0
   -1.4820    3.5272    0.0000 O   0  0  0  0  0  0  0  0  0  0  0  0
    1.3291   -1.7736    0.0000 C   0  0  0  0  0  0  0  0  0  0  0  0
    2.0319   -3.0988    0.0000 C   0  0  0  0  0  0  0  0  0  0  0  0
  1  2  1  0
  2  3  1  0
  3  4  1  0
  4  5  1  0
  5  6  2  0
  6  7  1  0
  7  8  2  0
  8  9  1  0
  9 10  1  0
 10 11  2  0
 10 12  2  0
 10 13  1  0
  9 14  2  0
  3 15  1  0
 15 16  2  0
 16 17  1  0
 17 18  2  0
 18 19  1  0
 19 20  2  0
 20 21  1  0
 21 22  2  0
 22 23  1  0
 23 24  2  0
 24 25  1  0
 25 26  1  0
 24 27  1  0
 27 28  1  0
 28 29  2  0
 29 30  1  0
 30 31  2  0
 31 32  1  0
 32 33  1  0
 33 34  2  0
 33 35  2  0
 33 36  1  0
 32 37  2  0
 23 38  1  0
 38 39  2  0
 19 40  1  0
 40 41  2  0
 41 42  1  0
 42 43  2  0
 43 44  1  0
 43 45  1  0
 45 46  2  0
 46 47  1  0
 47 48  2  0
 47 49  2  0
 47 50  1  0
 18 51  1  0
 51 52  2  0
 14  5  1  0
 52 15  1  0
 39 20  1  0
 46 40  1  0
 37 28  1  0
M  CHG  2  24   1  36  -1
M  END
> <Identifier>
Drug_49

> <Carcinogen>
1

$$$$

     RDKit          2D

 29 31  0  0  0  0  0  0  0  0999 V2000
  -10.6225   -0.2758    0.0000 C   0  0  0  0  0  0  0  0  0  0  0  0
   -9.3107   -1.0033    0.0000 C   0  0  0  0  0  0  0  0  0  0  0  0
   -8.0248   -0.2310    0.0000 N   0  0  0  0  0  0  0  0  0  0  0  0
   -8.0507    1.2688    0.0000 C   0  0  0  0  0  0  0  0  0  0  0  0
   -9.3624    1.9963    0.0000 C   0  0  0  0  0  0  0  0  0  0  0  0
   -6.7130   -0.9584    0.0000 C   0  0  0  0  0  0  0  0  0  0  0  0
   -5.4271   -0.1861    0.0000 C   0  0  0  0  0  0  0  0  0  0  0  0
   -4.1153   -0.9136    0.0000 C   0  0  0  0  0  0  0  0  0  0  0  0
   -2.8294   -0.1413    0.0000 N   0  0  0  0  0  0  0  0  0  0  0  0
   -1.5176   -0.8688    0.0000 C   0  0  0  0  0  0  0  0  0  0  0  0
   -1.4917   -2.3685    0.0000 O   0  0  0  0  0  0  0  0  0  0  0  0
   -0.2317   -0.0965    0.0000 C   0  0  0  0  0  0  0  0  0  0  0  0
    1.0801   -0.8239    0.0000 N   0  0  0  0  0  0  0  0  0  0  0  0
    1.2626   -2.3128    0.0000 N   0  0  0  0  0  0  0  0  0  0  0  0
    2.7350   -2.5993    0.0000 C   0  0  0  0  0  0  0  0  0  0  0  0
    3.4625   -1.2875    0.0000 C   0  0  0  0  0  0  0  0  0  0  0  0
    4.9513   -1.1050    0.0000 C   0  0  0  0  0  0  0  0  0  0  0  0
    5.8538   -2.3031    0.0000 C   0  0  0  0  0  0  0  0  0  0  0  0
    7.3426   -2.1206    0.0000 C   0  0  0  0  0  0  0  0  0  0  0  0
    7.9290   -0.7400    0.0000 C   0  0  0  0  0  0  0  0  0  0  0  0
    7.0265    0.4582    0.0000 C   0  0  0  0  0  0  0  0  0  0  0  0
    5.5377    0.2756    0.0000 C   0  0  0  0  0  0  0  0  0  0  0  0
    2.4397   -0.1903    0.0000 C   0  0  0  0  0  0  0  0  0  0  0  0
    2.7262    1.2821    0.0000 C   0  0  0  0  0  0  0  0  0  0  0  0
    4.1445    1.7702    0.0000 C   0  0  0  0  0  0  0  0  0  0  0  0
    4.4310    3.2426    0.0000 C   0  0  0  0  0  0  0  0  0  0  0  0
    3.2992    4.2269    0.0000 C   0  0  0  0  0  0  0  0  0  0  0  0
    1.8808    3.7388    0.0000 C   0  0  0  0  0  0  0  0  0  0  0  0
    1.5943    2.2664    0.0000 C   0  0  0  0  0  0  0  0  0  0  0  0
  1  2  1  0
  2  3  1  0
  3  4  1  0
  4  5  1  0
  3  6  1  0
  6  7  1  0
  7  8  1  0
  8  9  1  0
  9 10  1  0
 10 11  2  0
 10 12  1  0
 12 13  1  0
 13 14  1  0
 14 15  2  0
 15 16  1  0
 16 17  1  0
 17 18  2  0
 18 19  1  0
 19 20  2  0
 20 21  1  0
 21 22  2  0
 16 23  2  0
 23 24  1  0
 24 25  2  0
 25 26  1  0
 26 27  2  0
 27 28  1  0
 28 29  2  0
 23 13  1  0
 29 24  1  0
 22 17  1  0
M  END
> <Identifier>
Drug_50

> <Carcinogen>
1

$$$$

     RDKit          2D

 22 22  0  0  0  0  0  0  0  0999 V2000
   -7.7838    0.4087    0.0000 C   0  0  0  0  0  0  0  0  0  0  0  0
   -6.5188   -0.3973    0.0000 N   0  0  0  0  0  0  0  0  0  0  0  0
   -5.1882    0.2952    0.0000 C   0  0  0  0  0  0  0  0  0  0  0  0
   -3.9232   -0.5109    0.0000 C   0  0  0  0  0  0  0  0  0  0  0  0
   -2.5926    0.1816    0.0000 C   0  0  0  0  0  0  0  0  0  0  0  0
   -2.5271    1.6802    0.0000 C   0  0  0  0  0  0  0  0  0  0  0  0
   -1.1965    2.3727    0.0000 C   0  0  0  0  0  0  0  0  0  0  0  0
    0.0685    1.5667    0.0000 C   0  0  0  0  0  0  0  0  0  0  0  0
    1.3991    2.2592    0.0000 O   0  0  0  0  0  0  0  0  0  0  0  0
    2.6641    1.4532    0.0000 C   0  0  0  0  0  0  0  0  0  0  0  0
    2.5986   -0.0454    0.0000 O   0  0  0  0  0  0  0  0  0  0  0  0
    3.9947    2.1457    0.0000 C   0  0  0  0  0  0  0  0  0  0  0  0
    5.2597    1.3396    0.0000 C   0  0  0  0  0  0  0  0  0  0  0  0
    4.0602    3.6442    0.0000 C   0  0  0  0  0  0  0  0  0  0  0  0
    0.0030    0.0681    0.0000 C   0  0  0  0  0  0  0  0  0  0  0  0
    1.2680   -0.7379    0.0000 O   0  0  0  0  0  0  0  0  0  0  0  0
    1.2025   -2.2365    0.0000 C   0  0  0  0  0  0  0  0  0  0  0  0
   -0.1281   -2.9290    0.0000 O   0  0  0  0  0  0  0  0  0  0  0  0
    2.4675   -3.0425    0.0000 C   0  0  0  0  0  0  0  0  0  0  0  0
    2.4019   -4.5411    0.0000 C   0  0  0  0  0  0  0  0  0  0  0  0
    3.7980   -2.3500    0.0000 C   0  0  0  0  0  0  0  0  0  0  0  0
   -1.3276   -0.6244    0.0000 C   0  0  0  0  0  0  0  0  0  0  0  0
  1  2  1  0
  2  3  1  0
  3  4  1  0
  4  5  1  0
  5  6  2  0
  6  7  1  0
  7  8  2  0
  8  9  1  0
  9 10  1  0
 10 11  2  0
 10 12  1  0
 12 13  1  0
 12 14  1  0
  8 15  1  0
 15 16  1  0
 16 17  1  0
 17 18  2  0
 17 19  1  0
 19 20  1  0
 19 21  1  0
 15 22  2  0
 22  5  1  0
M  END
> <Identifier>
Drug_51

> <Carcinogen>
1

$$$$

     RDKit          2D

 13 14  0  0  0  0  0  0  0  0999 V2000
    5.4467    0.1296    0.0000 O   0  0  0  0  0  0  0  0  0  0  0  0
    4.1048    0.7998    0.0000 N   0  0  0  0  0  0  0  0  0  0  0  0
    2.8534   -0.0273    0.0000 C   0  0  0  0  0  0  0  0  0  0  0  0
    1.5114    0.6429    0.0000 N   0  0  0  0  0  0  0  0  0  0  0  0
    0.2601   -0.1842    0.0000 C   0  0  0  0  0  0  0  0  0  0  0  0
    0.3507   -1.6815    0.0000 N   0  0  0  0  0  0  0  0  0  0  0  0
   -0.9007   -2.5086    0.0000 C   0  0  0  0  0  0  0  0  0  0  0  0
   -2.2426   -1.8384    0.0000 N   0  0  0  0  0  0  0  0  0  0  0  0
   -2.3332   -0.3412    0.0000 C   0  0  0  0  0  0  0  0  0  0  0  0
   -3.5066    0.5934    0.0000 N   0  0  0  0  0  0  0  0  0  0  0  0
   -2.9803    1.9980    0.0000 C   0  0  0  0  0  0  0  0  0  0  0  0
   -1.4818    1.9316    0.0000 N   0  0  0  0  0  0  0  0  0  0  0  0
   -1.0819    0.4859    0.0000 C   0  0  0  0  0  0  0  0  0  0  0  0
  1  2  2  0
  2  3  1  0
  3  4  1  0
  4  5  1  0
  5  6  2  0
  6  7  1  0
  7  8  2  0
  8  9  1  0
  9 10  1  0
 10 11  1  0
 11 12  2  0
 12 13  1  0
 13  5  1  0
 13  9  2  0
M  END
> <Identifier>
Drug_52

> <Carcinogen>
1

$$$$

     RDKit          2D

 17 17  0  0  0  0  0  0  0  0999 V2000
    6.2751   -0.9472    0.0000 C   0  0  0  0  0  0  0  0  0  0  0  0
    4.8249   -0.5639    0.0000 C   0  0  0  0  0  0  0  0  0  0  0  0
    3.7679   -1.6282    0.0000 C   0  0  0  0  0  0  0  0  0  0  0  0
    2.3177   -1.2449    0.0000 C   0  0  0  0  0  0  0  0  0  0  0  0
    1.9245    0.2027    0.0000 C   0  0  0  0  0  0  0  0  0  0  0  0
    0.4743    0.5860    0.0000 S   0  0  0  0  0  0  0  0  0  0  0  0
    0.8576    2.0362    0.0000 O   0  0  0  0  0  0  0  0  0  0  0  0
    0.0910   -0.8642    0.0000 O   0  0  0  0  0  0  0  0  0  0  0  0
   -0.9759    0.9693    0.0000 O   0  0  0  0  0  0  0  0  0  0  0  0
   -2.0329   -0.0950    0.0000 C   0  0  0  0  0  0  0  0  0  0  0  0
   -3.4831    0.2883    0.0000 C   0  0  0  0  0  0  0  0  0  0  0  0
   -3.8763    1.7359    0.0000 N   0  0  0  0  0  0  0  0  0  0  0  0
   -4.5402   -0.7759    0.0000 C   0  0  0  0  0  0  0  0  0  0  0  0
   -5.9904   -0.3926    0.0000 N   0  0  0  0  0  0  0  0  0  0  0  0
   -7.0474   -1.4569    0.0000 O   0  0  0  0  0  0  0  0  0  0  0  0
    2.9816    1.2669    0.0000 C   0  0  0  0  0  0  0  0  0  0  0  0
    4.4318    0.8836    0.0000 C   0  0  0  0  0  0  0  0  0  0  0  0
  1  2  1  0
  2  3  2  0
  3  4  1  0
  4  5  2  0
  5  6  1  0
  6  7  2  0
  6  8  2  0
  6  9  1  0
  9 10  1  0
 10 11  1  0
 11 12  1  0
 11 13  1  0
 13 14  1  0
 14 15  2  0
  5 16  1  0
 16 17  2  0
 17  2  1  0
M  END
> <Identifier>
Drug_53

> <Carcinogen>
1

$$$$

     RDKit          2D

 14 14  0  0  0  0  0  0  0  0999 V2000
    4.6686    1.8474    0.0000 C   0  0  0  0  0  0  0  0  0  0  0  0
    3.8139    0.6148    0.0000 C   0  0  0  0  0  0  0  0  0  0  0  0
    4.4539   -0.7418    0.0000 O   0  0  0  0  0  0  0  0  0  0  0  0
    2.3190    0.7388    0.0000 C   0  0  0  0  0  0  0  0  0  0  0  0
    1.4642   -0.4938    0.0000 N   0  0  0  0  0  0  0  0  0  0  0  0
    2.1043   -1.8504    0.0000 C   0  0  0  0  0  0  0  0  0  0  0  0
   -0.0307   -0.3699    0.0000 C   0  0  0  0  0  0  0  0  0  0  0  0
   -0.8855   -1.6025    0.0000 C   0  0  0  0  0  0  0  0  0  0  0  0
   -2.3803   -1.4785    0.0000 C   0  0  0  0  0  0  0  0  0  0  0  0
   -3.0204   -0.1220    0.0000 C   0  0  0  0  0  0  0  0  0  0  0  0
   -4.5153    0.0020    0.0000 N   0  0  0  0  0  0  0  0  0  0  0  0
   -5.1554    1.3586    0.0000 N   0  0  0  0  0  0  0  0  0  0  0  0
   -2.1656    1.1107    0.0000 N   0  0  0  0  0  0  0  0  0  0  0  0
   -0.6708    0.9867    0.0000 N   0  0  0  0  0  0  0  0  0  0  0  0
  1  2  1  0
  2  3  1  0
  2  4  1  0
  4  5  1  0
  5  6  1  0
  5  7  1  0
  7  8  2  0
  8  9  1  0
  9 10  2  0
 10 11  1  0
 11 12  1  0
 10 13  1  0
 13 14  2  0
 14  7  1  0
M  END
> <Identifier>
Drug_54

> <Carcinogen>
1

$$$$

     RDKit          2D

 24 25  0  0  0  0  0  0  0  0999 V2000
   -7.2041   -2.1146    0.0000 C   0  0  0  0  0  0  0  0  0  0  0  0
   -7.1299   -0.6164    0.0000 C   0  0  0  0  0  0  0  0  0  0  0  0
   -8.3902    0.1970    0.0000 C   0  0  0  0  0  0  0  0  0  0  0  0
   -8.3159    1.6951    0.0000 C   0  0  0  0  0  0  0  0  0  0  0  0
   -6.9813    2.3799    0.0000 C   0  0  0  0  0  0  0  0  0  0  0  0
   -5.7210    1.5665    0.0000 C   0  0  0  0  0  0  0  0  0  0  0  0
   -5.7953    0.0683    0.0000 C   0  0  0  0  0  0  0  0  0  0  0  0
   -4.5350   -0.7451    0.0000 O   0  0  0  0  0  0  0  0  0  0  0  0
   -3.2004   -0.0603    0.0000 C   0  0  0  0  0  0  0  0  0  0  0  0
   -1.9401   -0.8737    0.0000 C   0  0  0  0  0  0  0  0  0  0  0  0
   -2.0144   -2.3719    0.0000 O   0  0  0  0  0  0  0  0  0  0  0  0
   -0.6055   -0.1890    0.0000 C   0  0  0  0  0  0  0  0  0  0  0  0
    0.6548   -1.0024    0.0000 N   0  0  0  0  0  0  0  0  0  0  0  0
    1.9894   -0.3177    0.0000 C   0  0  0  0  0  0  0  0  0  0  0  0
    3.2497   -1.1311    0.0000 C   0  0  0  0  0  0  0  0  0  0  0  0
    4.5843   -0.4463    0.0000 N   0  0  0  0  0  0  0  0  0  0  0  0
    5.8446   -1.2597    0.0000 C   0  0  0  0  0  0  0  0  0  0  0  0
    7.1792   -0.5750    0.0000 C   0  0  0  0  0  0  0  0  0  0  0  0
    8.4395   -1.3884    0.0000 C   0  0  0  0  0  0  0  0  0  0  0  0
    7.2535    0.9232    0.0000 C   0  0  0  0  0  0  0  0  0  0  0  0
    8.5880    1.6079    0.0000 O   0  0  0  0  0  0  0  0  0  0  0  0
    5.9932    1.7366    0.0000 N   0  0  0  0  0  0  0  0  0  0  0  0
    4.6586    1.0518    0.0000 C   0  0  0  0  0  0  0  0  0  0  0  0
    3.3983    1.8653    0.0000 O   0  0  0  0  0  0  0  0  0  0  0  0
  1  2  1  0
  2  3  2  0
  3  4  1  0
  4  5  2  0
  5  6  1  0
  6  7  2  0
  7  8  1  0
  8  9  1  0
  9 10  1  0
 10 11  1  0
 10 12  1  0
 12 13  1  0
 13 14  1  0
 14 15  1  0
 15 16  1  0
 16 17  1  0
 17 18  2  0
 18 19  1  0
 18 20  1  0
 20 21  2  0
 20 22  1  0
 22 23  1  0
 23 24  2  0
  7  2  1  0
 23 16  1  0
M  END
> <Identifier>
Drug_55

> <Carcinogen>
1

$$$$

     RDKit          2D

 35 38  0  0  0  0  0  0  0  0999 V2000
   -7.0043    0.4186    0.0000 O   0  0  0  0  0  0  0  0  0  0  0  0
   -6.6659   -1.0427    0.0000 S   0  0  0  0  0  0  0  0  0  0  0  0
   -6.3275   -2.5040    0.0000 O   0  0  0  0  0  0  0  0  0  0  0  0
   -8.1272   -1.3811    0.0000 O   0  0  0  0  0  0  0  0  0  0  0  0
   -5.2045   -0.7043    0.0000 C   0  0  0  0  0  0  0  0  0  0  0  0
   -4.7669    0.7304    0.0000 C   0  0  0  0  0  0  0  0  0  0  0  0
   -3.3056    1.0689    0.0000 C   0  0  0  0  0  0  0  0  0  0  0  0
   -2.8680    2.5036    0.0000 S   0  0  0  0  0  0  0  0  0  0  0  0
   -4.3028    2.9412    0.0000 O   0  0  0  0  0  0  0  0  0  0  0  0
   -1.4333    2.0660    0.0000 O   0  0  0  0  0  0  0  0  0  0  0  0
   -2.4304    3.9384    0.0000 O   0  0  0  0  0  0  0  0  0  0  0  0
   -2.2819   -0.0275    0.0000 C   0  0  0  0  0  0  0  0  0  0  0  0
   -0.8205    0.3109    0.0000 C   0  0  0  0  0  0  0  0  0  0  0  0
   -0.3829    1.7457    0.0000 N   0  0  0  0  0  0  0  0  0  0  0  0
    1.0784    2.0841    0.0000 N   0  0  0  0  0  0  0  0  0  0  0  0
    2.1021    0.9877    0.0000 C   0  0  0  0  0  0  0  0  0  0  0  0
    1.6645   -0.4470    0.0000 C   0  0  0  0  0  0  0  0  0  0  0  0
    2.6883   -1.5434    0.0000 C   0  0  0  0  0  0  0  0  0  0  0  0
    4.1496   -1.2050    0.0000 C   0  0  0  0  0  0  0  0  0  0  0  0
    5.1733   -2.3013    0.0000 S   0  0  0  0  0  0  0  0  0  0  0  0
    4.0770   -3.3250    0.0000 O   0  0  0  0  0  0  0  0  0  0  0  0
    6.2697   -1.2776    0.0000 O   0  0  0  0  0  0  0  0  0  0  0  0
    6.1970   -3.3977    0.0000 O   0  0  0  0  0  0  0  0  0  0  0  0
    4.5872    0.2298    0.0000 C   0  0  0  0  0  0  0  0  0  0  0  0
    6.0485    0.5682    0.0000 C   0  0  0  0  0  0  0  0  0  0  0  0
    6.4861    2.0029    0.0000 C   0  0  0  0  0  0  0  0  0  0  0  0
    5.4624    3.0993    0.0000 C   0  0  0  0  0  0  0  0  0  0  0  0
    4.0010    2.7609    0.0000 C   0  0  0  0  0  0  0  0  0  0  0  0
    3.5634    1.3261    0.0000 C   0  0  0  0  0  0  0  0  0  0  0  0
    0.2032   -0.7854    0.0000 C   0  0  0  0  0  0  0  0  0  0  0  0
    1.0002   -0.7989    0.0000 O   0  0  0  0  0  0  0  0  0  0  0  0
   -0.2344   -2.2202    0.0000 C   0  0  0  0  0  0  0  0  0  0  0  0
   -1.6957   -2.5586    0.0000 C   0  0  0  0  0  0  0  0  0  0  0  0
   -2.7195   -1.4622    0.0000 C   0  0  0  0  0  0  0  0  0  0  0  0
   -4.1808   -1.8006    0.0000 C   0  0  0  0  0  0  0  0  0  0  0  0
  1  2  2  0
  2  3  2  0
  2  4  1  0
  2  5  1  0
  5  6  2  0
  6  7  1  0
  7  8  1  0
  8  9  2  0
  8 10  2  0
  8 11  1  0
  7 12  2  0
 12 13  1  0
 13 14  1  0
 14 15  2  0
 15 16  1  0
 16 17  2  0
 17 18  1  0
 18 19  2  0
 19 20  1  0
 20 21  2  0
 20 22  2  0
 20 23  1  0
 19 24  1  0
 24 25  2  0
 25 26  1  0
 26 27  2  0
 27 28  1  0
 28 29  2  0
 13 30  2  0
 30 31  1  0
 30 32  1  0
 32 33  2  0
 33 34  1  0
 34 35  2  0
 35  5  1  0
 34 12  1  0
 29 16  1  0
 29 24  1  0
M  END
> <Identifier>
Drug_56

> <Carcinogen>
1

$$$$

     RDKit          2D

 27 30  0  0  0  0  0  0  0  0999 V2000
    3.9744    2.0174    0.0000 O   0  0  0  0  0  0  0  0  0  0  0  0
    2.4755    1.9590    0.0000 S   0  0  0  0  0  0  0  0  0  0  0  0
    0.9767    1.9006    0.0000 O   0  0  0  0  0  0  0  0  0  0  0  0
    2.4171    3.4579    0.0000 O   0  0  0  0  0  0  0  0  0  0  0  0
    2.5340    0.4602    0.0000 C   0  0  0  0  0  0  0  0  0  0  0  0
    1.2651   -0.3399    0.0000 C   0  0  0  0  0  0  0  0  0  0  0  0
   -0.0621    0.3590    0.0000 N   0  0  0  0  0  0  0  0  0  0  0  0
   -1.3310   -0.4411    0.0000 N   0  0  0  0  0  0  0  0  0  0  0  0
   -2.6582    0.2578    0.0000 C   0  0  0  0  0  0  0  0  0  0  0  0
   -2.7167    1.7566    0.0000 C   0  0  0  0  0  0  0  0  0  0  0  0
   -1.4478    2.5567    0.0000 O   0  0  0  0  0  0  0  0  0  0  0  0
   -4.0439    2.4555    0.0000 C   0  0  0  0  0  0  0  0  0  0  0  0
   -5.3128    1.6554    0.0000 C   0  0  0  0  0  0  0  0  0  0  0  0
   -5.2544    0.1566    0.0000 C   0  0  0  0  0  0  0  0  0  0  0  0
   -6.5232   -0.6435    0.0000 C   0  0  0  0  0  0  0  0  0  0  0  0
   -6.4648   -2.1423    0.0000 C   0  0  0  0  0  0  0  0  0  0  0  0
   -5.1375   -2.8412    0.0000 C   0  0  0  0  0  0  0  0  0  0  0  0
   -3.8687   -2.0411    0.0000 C   0  0  0  0  0  0  0  0  0  0  0  0
   -3.9271   -0.5423    0.0000 C   0  0  0  0  0  0  0  0  0  0  0  0
    1.3235   -1.8387    0.0000 C   0  0  0  0  0  0  0  0  0  0  0  0
    2.6508   -2.5376    0.0000 C   0  0  0  0  0  0  0  0  0  0  0  0
    3.9197   -1.7375    0.0000 C   0  0  0  0  0  0  0  0  0  0  0  0
    5.2469   -2.4364    0.0000 C   0  0  0  0  0  0  0  0  0  0  0  0
    6.5158   -1.6363    0.0000 C   0  0  0  0  0  0  0  0  0  0  0  0
    6.4573   -0.1375    0.0000 C   0  0  0  0  0  0  0  0  0  0  0  0
    5.1301    0.5614    0.0000 C   0  0  0  0  0  0  0  0  0  0  0  0
    3.8612   -0.2387    0.0000 C   0  0  0  0  0  0  0  0  0  0  0  0
  1  2  2  0
  2  3  2  0
  2  4  1  0
  2  5  1  0
  5  6  2  0
  6  7  1  0
  7  8  2  0
  8  9  1  0
  9 10  2  0
 10 11  1  0
 10 12  1  0
 12 13  2  0
 13 14  1  0
 14 15  2  0
 15 16  1  0
 16 17  2  0
 17 18  1  0
 18 19  2  0
  6 20  1  0
 20 21  2  0
 21 22  1  0
 22 23  2  0
 23 24  1  0
 24 25  2  0
 25 26  1  0
 26 27  2  0
 27  5  1  0
 19  9  1  0
 27 22  1  0
 19 14  1  0
M  END
> <Identifier>
Drug_57

> <Carcinogen>
1

$$$$

     RDKit          2D

 48 51  0  0  0  0  0  0  0  0999 V2000
   -7.4712   -1.5600    0.0000 C   0  0  0  0  0  0  0  0  0  0  0  0
   -8.1822   -0.2392    0.0000 C   0  0  0  0  0  0  0  0  0  0  0  0
   -8.9610   -0.4089    0.0000 O   0  0  0  0  0  0  0  0  0  0  0  0
   -7.3937    1.0369    0.0000 C   0  0  0  0  0  0  0  0  0  0  0  0
   -8.1047    2.3578    0.0000 N   0  0  0  0  0  0  0  0  0  0  0  0
   -9.6040    2.4025    0.0000 N   0  0  0  0  0  0  0  0  0  0  0  0
  -10.3924    1.1264    0.0000 C   0  0  0  0  0  0  0  0  0  0  0  0
   -9.6815   -0.1944    0.0000 C   0  0  0  0  0  0  0  0  0  0  0  0
  -10.4699   -1.4705    0.0000 C   0  0  0  0  0  0  0  0  0  0  0  0
  -11.9692   -1.4258    0.0000 C   0  0  0  0  0  0  0  0  0  0  0  0
  -12.7577   -2.7019    0.0000 Cl  0  0  0  0  0  0  0  0  0  0  0  0
  -12.6802   -0.1049    0.0000 C   0  0  0  0  0  0  0  0  0  0  0  0
  -11.8917    1.1712    0.0000 C   0  0  0  0  0  0  0  0  0  0  0  0
  -12.6027    2.4920    0.0000 Cl  0  0  0  0  0  0  0  0  0  0  0  0
   -5.8944    0.9922    0.0000 C   0  0  0  0  0  0  0  0  0  0  0  0
   -5.1060    2.2683    0.0000 O   0  0  0  0  0  0  0  0  0  0  0  0
   -5.1835   -0.3286    0.0000 N   0  0  0  0  0  0  0  0  0  0  0  0
   -3.6842   -0.3734    0.0000 C   0  0  0  0  0  0  0  0  0  0  0  0
   -2.9732   -1.6942    0.0000 C   0  0  0  0  0  0  0  0  0  0  0  0
   -1.4739   -1.7390    0.0000 C   0  0  0  0  0  0  0  0  0  0  0  0
   -0.6855   -0.4629    0.0000 C   0  0  0  0  0  0  0  0  0  0  0  0
    0.8138   -0.5076    0.0000 C   0  0  0  0  0  0  0  0  0  0  0  0
    1.5248   -1.8285    0.0000 C   0  0  0  0  0  0  0  0  0  0  0  0
    3.0241   -1.8732    0.0000 C   0  0  0  0  0  0  0  0  0  0  0  0
    3.8125   -0.5971    0.0000 C   0  0  0  0  0  0  0  0  0  0  0  0
    5.3118   -0.6419    0.0000 N   0  0  0  0  0  0  0  0  0  0  0  0
    6.0227   -1.9627    0.0000 C   0  0  0  0  0  0  0  0  0  0  0  0
    5.2343   -3.2388    0.0000 O   0  0  0  0  0  0  0  0  0  0  0  0
    7.5221   -2.0074    0.0000 C   0  0  0  0  0  0  0  0  0  0  0  0
    8.3105   -0.7313    0.0000 N   0  0  0  0  0  0  0  0  0  0  0  0
    9.8098   -0.7761    0.0000 N   0  0  0  0  0  0  0  0  0  0  0  0
   10.5982    0.5000    0.0000 C   0  0  0  0  0  0  0  0  0  0  0  0
   12.0976    0.4553    0.0000 C   0  0  0  0  0  0  0  0  0  0  0  0
   12.8860    1.7314    0.0000 C   0  0  0  0  0  0  0  0  0  0  0  0
   12.1751    3.0522    0.0000 C   0  0  0  0  0  0  0  0  0  0  0  0
   12.9635    4.3283    0.0000 Cl  0  0  0  0  0  0  0  0  0  0  0  0
   10.6757    3.0969    0.0000 C   0  0  0  0  0  0  0  0  0  0  0  0
    9.8873    1.8208    0.0000 C   0  0  0  0  0  0  0  0  0  0  0  0
    8.3880    1.8656    0.0000 Cl  0  0  0  0  0  0  0  0  0  0  0  0
    8.2330   -3.3283    0.0000 C   0  0  0  0  0  0  0  0  0  0  0  0
    9.7323   -3.3730    0.0000 C   0  0  0  0  0  0  0  0  0  0  0  0
    7.4446   -4.6043    0.0000 O   0  0  0  0  0  0  0  0  0  0  0  0
    3.1016    0.7237    0.0000 C   0  0  0  0  0  0  0  0  0  0  0  0
    3.8900    1.9998    0.0000 C   0  0  0  0  0  0  0  0  0  0  0  0
    1.6022    0.7685    0.0000 C   0  0  0  0  0  0  0  0  0  0  0  0
   -1.3964    0.8580    0.0000 C   0  0  0  0  0  0  0  0  0  0  0  0
   -2.8957    0.9027    0.0000 C   0  0  0  0  0  0  0  0  0  0  0  0
   -3.6067    2.2235    0.0000 C   0  0  0  0  0  0  0  0  0  0  0  0
  1  2  1  0
  2  3  2  0
  2  4  1  0
  4  5  1  0
  5  6  2  0
  6  7  1  0
  7  8  2  0
  8  9  1  0
  9 10  2  0
 10 11  1  0
 10 12  1  0
 12 13  2  0
 13 14  1  0
  4 15  1  0
 15 16  2  0
 15 17  1  0
 17 18  1  0
 18 19  2  0
 19 20  1  0
 20 21  2  0
 21 22  1  0
 22 23  2  0
 23 24  1  0
 24 25  2  0
 25 26  1  0
 26 27  1  0
 27 28  2  0
 27 29  1  0
 29 30  1  0
 30 31  2  0
 31 32  1  0
 32 33  2  0
 33 34  1  0
 34 35  2  0
 35 36  1  0
 35 37  1  0
 37 38  2  0
 38 39  1  0
 29 40  1  0
 40 41  1  0
 40 42  2  0
 25 43  1  0
 43 44  1  0
 43 45  2  0
 21 46  1  0
 46 47  2  0
 47 48  1  0
 13  7  1  0
 47 18  1  0
 45 22  1  0
 38 32  1  0
M  END
> <Identifier>
Drug_58

> <Carcinogen>
1

$$$$

     RDKit          2D

 31 33  0  0  0  0  0  0  0  0999 V2000
   -0.0132   -4.4236    0.0000 O   0  0  0  0  0  0  0  0  0  0  0  0
   -0.5594   -3.0266    0.0000 C   0  0  0  0  0  0  0  0  0  0  0  0
   -2.0424   -2.8012    0.0000 O   0  0  0  0  0  0  0  0  0  0  0  0
    0.3773   -1.8551    0.0000 C   0  0  0  0  0  0  0  0  0  0  0  0
    1.8757   -1.9242    0.0000 N   0  0  0  0  0  0  0  0  0  0  0  0
    2.4045   -0.5205    0.0000 N   0  0  0  0  0  0  0  0  0  0  0  0
    3.8509   -0.1233    0.0000 C   0  0  0  0  0  0  0  0  0  0  0  0
    4.9182   -1.1773    0.0000 C   0  0  0  0  0  0  0  0  0  0  0  0
    6.3646   -0.7801    0.0000 C   0  0  0  0  0  0  0  0  0  0  0  0
    6.7438    0.6712    0.0000 C   0  0  0  0  0  0  0  0  0  0  0  0
    8.1903    1.0685    0.0000 S   0  0  0  0  0  0  0  0  0  0  0  0
    8.5875   -0.3780    0.0000 O   0  0  0  0  0  0  0  0  0  0  0  0
    7.7930    2.5149    0.0000 O   0  0  0  0  0  0  0  0  0  0  0  0
    9.6367    1.4657    0.0000 O   0  0  0  0  0  0  0  0  0  0  0  0
    5.6766    1.7252    0.0000 C   0  0  0  0  0  0  0  0  0  0  0  0
    4.2301    1.3280    0.0000 C   0  0  0  0  0  0  0  0  0  0  0  0
    1.2329    0.4162    0.0000 C   0  0  0  0  0  0  0  0  0  0  0  0
    1.3021    1.9146    0.0000 O   0  0  0  0  0  0  0  0  0  0  0  0
   -0.0200   -0.4086    0.0000 C   0  0  0  0  0  0  0  0  0  0  0  0
   -1.4237    0.1202    0.0000 N   0  0  0  0  0  0  0  0  0  0  0  0
   -2.5835   -0.8310    0.0000 N   0  0  0  0  0  0  0  0  0  0  0  0
   -3.9872   -0.3022    0.0000 C   0  0  0  0  0  0  0  0  0  0  0  0
   -4.2311    1.1778    0.0000 C   0  0  0  0  0  0  0  0  0  0  0  0
   -5.6348    1.7066    0.0000 C   0  0  0  0  0  0  0  0  0  0  0  0
   -6.7946    0.7554    0.0000 C   0  0  0  0  0  0  0  0  0  0  0  0
   -8.1983    1.2842    0.0000 S   0  0  0  0  0  0  0  0  0  0  0  0
   -7.6694    2.6879    0.0000 O   0  0  0  0  0  0  0  0  0  0  0  0
   -8.7271   -0.1195    0.0000 O   0  0  0  0  0  0  0  0  0  0  0  0
   -9.6020    1.8130    0.0000 O   0  0  0  0  0  0  0  0  0  0  0  0
   -6.5507   -0.7246    0.0000 C   0  0  0  0  0  0  0  0  0  0  0  0
   -5.1470   -1.2535    0.0000 C   0  0  0  0  0  0  0  0  0  0  0  0
  1  2  2  0
  2  3  1  0
  2  4  1  0
  4  5  2  0
  5  6  1  0
  6  7  1  0
  7  8  2  0
  8  9  1  0
  9 10  2  0
 10 11  1  0
 11 12  2  0
 11 13  2  0
 11 14  1  0
 10 15  1  0
 15 16  2  0
  6 17  1  0
 17 18  2  0
 17 19  1  0
 19 20  1  0
 20 21  2  0
 21 22  1  0
 22 23  2  0
 23 24  1  0
 24 25  2  0
 25 26  1  0
 26 27  2  0
 26 28  2  0
 26 29  1  0
 25 30  1  0
 30 31  2  0
 19  4  1  0
 31 22  1  0
 16  7  1  0
M  END
> <Identifier>
Drug_59

> <Carcinogen>
1

$$$$

     RDKit          2D

 24 27  0  0  0  0  0  0  0  0999 V2000
    3.3124    0.4415    0.0000 C   0  0  0  0  0  0  0  0  0  0  0  0
    3.9452   -0.0434    0.0000 N   0  0  0  0  0  0  0  0  0  0  0  0
    5.2371    0.7189    0.0000 C   0  0  0  0  0  0  0  0  0  0  0  0
    6.3612   -0.2742    0.0000 C   0  0  0  0  0  0  0  0  0  0  0  0
    5.7641   -1.6502    0.0000 C   0  0  0  0  0  0  0  0  0  0  0  0
    4.2709   -1.5076    0.0000 C   0  0  0  0  0  0  0  0  0  0  0  0
    2.8268   -1.0673    0.0000 C   0  0  0  0  0  0  0  0  0  0  0  0
    2.6559    0.4229    0.0000 C   0  0  0  0  0  0  0  0  0  0  0  0
    1.2799    1.0200    0.0000 N   0  0  0  0  0  0  0  0  0  0  0  0
    0.0747    0.1269    0.0000 C   0  0  0  0  0  0  0  0  0  0  0  0
    0.2457   -1.3634    0.0000 O   0  0  0  0  0  0  0  0  0  0  0  0
   -1.3013    0.7240    0.0000 C   0  0  0  0  0  0  0  0  0  0  0  0
   -1.4722    2.2142    0.0000 C   0  0  0  0  0  0  0  0  0  0  0  0
   -2.8482    2.8113    0.0000 C   0  0  0  0  0  0  0  0  0  0  0  0
   -3.0191    4.3015    0.0000 Cl  0  0  0  0  0  0  0  0  0  0  0  0
   -4.0534    1.9182    0.0000 C   0  0  0  0  0  0  0  0  0  0  0  0
   -3.8824    0.4279    0.0000 C   0  0  0  0  0  0  0  0  0  0  0  0
   -2.5064   -0.1692    0.0000 C   0  0  0  0  0  0  0  0  0  0  0  0
   -2.6491   -1.6624    0.0000 O   0  0  0  0  0  0  0  0  0  0  0  0
   -4.1133   -1.9881    0.0000 C   0  0  0  0  0  0  0  0  0  0  0  0
   -3.6363   -3.4102    0.0000 C   0  0  0  0  0  0  0  0  0  0  0  0
   -5.4778   -2.6112    0.0000 C   0  0  0  0  0  0  0  0  0  0  0  0
   -4.8755   -0.6962    0.0000 C   0  0  0  0  0  0  0  0  0  0  0  0
    3.8610    1.3160    0.0000 C   0  0  0  0  0  0  0  0  0  0  0  0
  1  2  1  0
  2  3  1  0
  3  4  1  0
  4  5  1  0
  5  6  1  0
  6  7  1  0
  7  8  1  0
  8  9  1  0
  9 10  1  0
 10 11  2  0
 10 12  1  0
 12 13  2  0
 13 14  1  0
 14 15  1  0
 14 16  2  0
 16 17  1  0
 17 18  2  0
 18 19  1  0
 19 20  1  0
 20 21  1  0
 20 22  1  0
 20 23  1  0
  8 24  1  0
  6  2  1  0
 18 12  1  0
 24  3  1  0
 23 17  1  0
M  END
> <Identifier>
Drug_60

> <Carcinogen>
1

$$$$

     RDKit          2D

 15 16  0  0  0  0  0  0  0  0999 V2000
   -4.9384   -1.0449    0.0000 C   0  0  0  0  0  0  0  0  0  0  0  0
   -3.5885   -0.3910    0.0000 C   0  0  0  0  0  0  0  0  0  0  0  0
   -3.4798    1.1051    0.0000 O   0  0  0  0  0  0  0  0  0  0  0  0
   -2.3472   -1.2332    0.0000 N   0  0  0  0  0  0  0  0  0  0  0  0
   -0.9972   -0.5793    0.0000 C   0  0  0  0  0  0  0  0  0  0  0  0
    0.2441   -1.4214    0.0000 C   0  0  0  0  0  0  0  0  0  0  0  0
    1.5940   -0.7675    0.0000 C   0  0  0  0  0  0  0  0  0  0  0  0
    2.8353   -1.6097    0.0000 C   0  0  0  0  0  0  0  0  0  0  0  0
    4.1853   -0.9558    0.0000 C   0  0  0  0  0  0  0  0  0  0  0  0
    4.2940    0.5403    0.0000 C   0  0  0  0  0  0  0  0  0  0  0  0
    3.0527    1.3824    0.0000 C   0  0  0  0  0  0  0  0  0  0  0  0
    1.7027    0.7285    0.0000 C   0  0  0  0  0  0  0  0  0  0  0  0
    0.4614    1.5707    0.0000 O   0  0  0  0  0  0  0  0  0  0  0  0
   -0.8885    0.9168    0.0000 C   0  0  0  0  0  0  0  0  0  0  0  0
   -2.1298    1.7590    0.0000 O   0  0  0  0  0  0  0  0  0  0  0  0
  1  2  1  0
  2  3  2  0
  2  4  1  0
  4  5  1  0
  5  6  2  0
  6  7  1  0
  7  8  2  0
  8  9  1  0
  9 10  2  0
 10 11  1  0
 11 12  2  0
 12 13  1  0
 13 14  1  0
 14 15  2  0
 14  5  1  0
 12  7  1  0
M  END
> <Identifier>
Drug_61

> <Carcinogen>
0

$$$$

     RDKit          2D

 46 52  0  0  0  0  0  0  0  0999 V2000
    5.3699    3.8019    0.0000 C   0  0  0  0  0  0  0  0  0  0  0  0
    3.9636    3.2801    0.0000 C   0  0  0  0  0  0  0  0  0  0  0  0
    3.7123    1.8013    0.0000 N   0  0  0  0  0  0  0  0  0  0  0  0
    4.8673    0.8443    0.0000 C   0  0  0  0  0  0  0  0  0  0  0  0
    4.6160   -0.6345    0.0000 C   0  0  0  0  0  0  0  0  0  0  0  0
    5.7710   -1.5915    0.0000 C   0  0  0  0  0  0  0  0  0  0  0  0
    7.1774   -1.0698    0.0000 O   0  0  0  0  0  0  0  0  0  0  0  0
    8.3324   -2.0268    0.0000 C   0  0  0  0  0  0  0  0  0  0  0  0
    3.2097   -1.1563    0.0000 C   0  0  0  0  0  0  0  0  0  0  0  0
    3.3339    0.3386    0.0000 C   0  0  0  0  0  0  0  0  0  0  0  0
    4.6163    1.1167    0.0000 O   0  0  0  0  0  0  0  0  0  0  0  0
    4.5836    2.6164    0.0000 C   0  0  0  0  0  0  0  0  0  0  0  0
    1.1509    2.2366    0.0000 C   0  0  0  0  0  0  0  0  0  0  0  0
    2.3060    1.2796    0.0000 C   0  0  0  0  0  0  0  0  0  0  0  0
    2.0546   -0.1992    0.0000 C   0  0  0  0  0  0  0  0  0  0  0  0
    0.6483   -0.7210    0.0000 C   0  0  0  0  0  0  0  0  0  0  0  0
    0.0950   -2.1152    0.0000 C   0  0  0  0  0  0  0  0  0  0  0  0
   -1.4019   -2.0199    0.0000 C   0  0  0  0  0  0  0  0  0  0  0  0
   -2.3590   -3.1749    0.0000 O   0  0  0  0  0  0  0  0  0  0  0  0
   -1.7738   -0.5667    0.0000 C   0  0  0  0  0  0  0  0  0  0  0  0
   -3.1681   -0.0134    0.0000 O   0  0  0  0  0  0  0  0  0  0  0  0
   -4.3443   -0.9442    0.0000 C   0  0  0  0  0  0  0  0  0  0  0  0
   -4.3089   -2.4438    0.0000 O   0  0  0  0  0  0  0  0  0  0  0  0
   -5.7386   -0.3910    0.0000 C   0  0  0  0  0  0  0  0  0  0  0  0
   -5.9565    1.0931    0.0000 C   0  0  0  0  0  0  0  0  0  0  0  0
   -7.3508    1.6464    0.0000 C   0  0  0  0  0  0  0  0  0  0  0  0
   -8.5270    0.7156    0.0000 C   0  0  0  0  0  0  0  0  0  0  0  0
   -8.3091   -0.7685    0.0000 C   0  0  0  0  0  0  0  0  0  0  0  0
   -6.9148   -1.3218    0.0000 C   0  0  0  0  0  0  0  0  0  0  0  0
   -0.5067    0.2360    0.0000 C   0  0  0  0  0  0  0  0  0  0  0  0
   -0.2554    1.7148    0.0000 C   0  0  0  0  0  0  0  0  0  0  0  0
   -1.4104    2.6719    0.0000 O   0  0  0  0  0  0  0  0  0  0  0  0
   -1.1591    4.1507    0.0000 C   0  0  0  0  0  0  0  0  0  0  0  0
   -2.3141    5.1077    0.0000 C   0  0  0  0  0  0  0  0  0  0  0  0
    0.2472    4.6724    0.0000 O   0  0  0  0  0  0  0  0  0  0  0  0
   -1.9835    0.5123    0.0000 C   0  0  0  0  0  0  0  0  0  0  0  0
   -3.0052    1.6105    0.0000 O   0  0  0  0  0  0  0  0  0  0  0  0
   -2.4237   -0.9217    0.0000 C   0  0  0  0  0  0  0  0  0  0  0  0
   -3.8856   -1.2574    0.0000 O   0  0  0  0  0  0  0  0  0  0  0  0
   -4.1477   -2.7343    0.0000 C   0  0  0  0  0  0  0  0  0  0  0  0
    1.8033   -1.6780    0.0000 C   0  0  0  0  0  0  0  0  0  0  0  0
    0.3970   -2.1998    0.0000 O   0  0  0  0  0  0  0  0  0  0  0  0
    0.1457   -3.6786    0.0000 C   0  0  0  0  0  0  0  0  0  0  0  0
    2.9584   -2.6351    0.0000 C   0  0  0  0  0  0  0  0  0  0  0  0
    4.3647   -2.1133    0.0000 C   0  0  0  0  0  0  0  0  0  0  0  0
    5.5197   -3.0703    0.0000 O   0  0  0  0  0  0  0  0  0  0  0  0
  1  2  1  0
  2  3  1  0
  3  4  1  0
  4  5  1  0
  5  6  1  1
  6  7  1  0
  7  8  1  0
  5  9  1  0
  9 10  1  0
 10 11  1  6
 11 12  1  0
 13 10  1  1
 13 14  1  0
 14 15  1  0
 15 16  1  1
 16 17  1  0
 17 18  1  0
 18 19  1  1
 18 20  1  0
 20 21  1  6
 21 22  1  0
 22 23  2  0
 22 24  1  0
 24 25  2  0
 25 26  1  0
 26 27  2  0
 27 28  1  0
 28 29  2  0
 20 30  1  0
 30 31  1  0
 31 32  1  1
 32 33  1  0
 33 34  1  0
 33 35  2  0
 31 36  1  0
 36 37  1  6
 36 38  1  0
 38 39  1  6
 39 40  1  0
 15 41  1  0
 41 42  1  6
 42 43  1  0
 41 44  1  0
 44 45  1  0
 45 46  1  6
 14  3  1  1
 30 16  1  0
 45  5  1  0
 15  9  1  0
 38 18  1  0
 31 13  1  0
 29 24  1  0
M  END
> <Identifier>
Drug_62

> <Carcinogen>
0

$$$$

     RDKit          2D

 26 30  0  0  0  0  0  0  0  0999 V2000
   -4.0250   -4.7659    0.0000 C   0  0  0  0  0  0  0  0  0  0  0  0
   -4.2959   -3.2906    0.0000 O   0  0  0  0  0  0  0  0  0  0  0  0
   -3.1536   -2.3183    0.0000 C   0  0  0  0  0  0  0  0  0  0  0  0
   -1.7405   -2.8214    0.0000 O   0  0  0  0  0  0  0  0  0  0  0  0
   -3.4245   -0.8430    0.0000 C   0  0  0  0  0  0  0  0  0  0  0  0
   -4.8376   -0.3399    0.0000 C   0  0  0  0  0  0  0  0  0  0  0  0
   -5.1085    1.1354    0.0000 O   0  0  0  0  0  0  0  0  0  0  0  0
   -3.9662    2.1077    0.0000 C   0  0  0  0  0  0  0  0  0  0  0  0
   -4.2371    3.5830    0.0000 C   0  0  0  0  0  0  0  0  0  0  0  0
   -2.5531    1.6046    0.0000 C   0  0  0  0  0  0  0  0  0  0  0  0
   -1.4109    2.5768    0.0000 C   0  0  0  0  0  0  0  0  0  0  0  0
    0.0022    2.0737    0.0000 N   0  0  0  0  0  0  0  0  0  0  0  0
    1.1445    3.0460    0.0000 C   0  0  0  0  0  0  0  0  0  0  0  0
    2.5576    2.5429    0.0000 C   0  0  0  0  0  0  0  0  0  0  0  0
    2.8285    1.0676    0.0000 C   0  0  0  0  0  0  0  0  0  0  0  0
    1.6862    0.0953    0.0000 C   0  0  0  0  0  0  0  0  0  0  0  0
    2.2579   -1.2915    0.0000 N   0  0  0  0  0  0  0  0  0  0  0  0
    3.7535   -1.1763    0.0000 C   0  0  0  0  0  0  0  0  0  0  0  0
    4.8398   -2.2107    0.0000 C   0  0  0  0  0  0  0  0  0  0  0  0
    6.2787   -1.7871    0.0000 C   0  0  0  0  0  0  0  0  0  0  0  0
    6.6314   -0.3291    0.0000 C   0  0  0  0  0  0  0  0  0  0  0  0
    5.5450    0.7053    0.0000 C   0  0  0  0  0  0  0  0  0  0  0  0
    4.1061    0.2817    0.0000 C   0  0  0  0  0  0  0  0  0  0  0  0
    0.2731    0.5984    0.0000 C   0  0  0  0  0  0  0  0  0  0  0  0
   -0.8691   -0.3738    0.0000 C   0  0  0  0  0  0  0  0  0  0  0  0
   -2.2823    0.1293    0.0000 C   0  0  0  0  0  0  0  0  0  0  0  0
  1  2  1  0
  2  3  1  0
  3  4  2  0
  3  5  1  0
  5  6  2  0
  6  7  1  0
  7  8  1  0
  8  9  1  1
  8 10  1  0
 10 11  1  1
 11 12  1  0
 12 13  1  0
 13 14  1  0
 14 15  1  0
 15 16  2  0
 16 17  1  0
 17 18  1  0
 18 19  2  0
 19 20  1  0
 20 21  2  0
 21 22  1  0
 22 23  2  0
 16 24  1  0
 24 25  1  6
 26 25  1  6
 26  5  1  0
 26 10  1  0
 24 12  1  0
 23 15  1  0
 23 18  1  0
M  END
> <Identifier>
Drug_63

> <Carcinogen>
0

$$$$

     RDKit          2D

 30 33  0  0  0  0  0  0  0  0999 V2000
   -7.2343    3.0259    0.0000 C   0  0  0  0  0  0  0  0  0  0  0  0
   -6.8319    1.5809    0.0000 C   0  0  0  0  0  0  0  0  0  0  0  0
   -5.3793    1.2068    0.0000 C   0  0  0  0  0  0  0  0  0  0  0  0
   -4.9769   -0.2382    0.0000 C   0  0  0  0  0  0  0  0  0  0  0  0
   -3.5243   -0.6123    0.0000 C   0  0  0  0  0  0  0  0  0  0  0  0
   -3.1220   -2.0573    0.0000 C   0  0  0  0  0  0  0  0  0  0  0  0
   -4.1722   -3.1283    0.0000 C   0  0  0  0  0  0  0  0  0  0  0  0
   -1.6694   -2.4314    0.0000 C   0  0  0  0  0  0  0  0  0  0  0  0
   -1.1182   -3.8264    0.0000 C   0  0  0  0  0  0  0  0  0  0  0  0
    0.3789   -3.7333    0.0000 C   0  0  0  0  0  0  0  0  0  0  0  0
    0.7530   -2.2807    0.0000 C   0  0  0  0  0  0  0  0  0  0  0  0
    2.0828   -1.5867    0.0000 C   0  0  0  0  0  0  0  0  0  0  0  0
    3.3487   -2.3913    0.0000 C   0  0  0  0  0  0  0  0  0  0  0  0
    4.6785   -1.6973    0.0000 C   0  0  0  0  0  0  0  0  0  0  0  0
    4.7424   -0.1987    0.0000 C   0  0  0  0  0  0  0  0  0  0  0  0
    6.0722    0.4953    0.0000 C   0  0  0  0  0  0  0  0  0  0  0  0
    6.1361    1.9940    0.0000 C   0  0  0  0  0  0  0  0  0  0  0  0
    7.4659    2.6880    0.0000 O   0  0  0  0  0  0  0  0  0  0  0  0
    4.8701    2.7986    0.0000 C   0  0  0  0  0  0  0  0  0  0  0  0
    3.5403    2.1046    0.0000 C   0  0  0  0  0  0  0  0  0  0  0  0
    3.4765    0.6060    0.0000 C   0  0  0  0  0  0  0  0  0  0  0  0
    2.2105    1.4106    0.0000 C   0  0  0  0  0  0  0  0  0  0  0  0
    2.1467   -0.0880    0.0000 C   0  0  0  0  0  0  0  0  0  0  0  0
    0.8807    0.7166    0.0000 C   0  0  0  0  0  0  0  0  0  0  0  0
   -0.4490    0.0226    0.0000 C   0  0  0  0  0  0  0  0  0  0  0  0
   -0.5129   -1.4761    0.0000 C   0  0  0  0  0  0  0  0  0  0  0  0
   -1.8560   -0.8081    0.0000 C   0  0  0  0  0  0  0  0  0  0  0  0
   -4.3291    2.2778    0.0000 C   0  0  0  0  0  0  0  0  0  0  0  0
   -4.7314    3.7228    0.0000 C   0  0  0  0  0  0  0  0  0  0  0  0
   -2.8764    1.9037    0.0000 C   0  0  0  0  0  0  0  0  0  0  0  0
  1  2  1  0
  3  2  1  1
  3  4  1  0
  4  5  1  0
  5  6  1  0
  6  7  1  6
  6  8  1  0
  8  9  1  6
  9 10  1  0
 11 10  1  6
 11 12  1  0
 12 13  1  1
 13 14  1  0
 14 15  2  0
 15 16  1  0
 16 17  1  0
 17 18  1  6
 17 19  1  0
 19 20  1  0
 20 21  1  0
 21 22  1  6
 21 23  1  0
 23 24  1  6
 24 25  1  0
 25 26  1  0
 26 27  1  6
  3 28  1  0
 28 29  1  0
 28 30  1  0
 26  8  1  0
 26 11  1  0
 23 12  1  0
 21 15  1  0
M  END
> <Identifier>
Drug_64

> <Carcinogen>
0

$$$$

     RDKit          2D

 28 30  0  0  0  0  0  0  0  0999 V2000
   -2.4284    4.2304    0.0000 C   0  0  0  0  0  0  0  0  0  0  0  0
   -1.0655    3.6039    0.0000 O   0  0  0  0  0  0  0  0  0  0  0  0
   -0.9266    2.1103    0.0000 C   0  0  0  0  0  0  0  0  0  0  0  0
   -2.4201    1.9714    0.0000 N   0  0  0  0  0  0  0  0  0  0  0  0
   -3.0466    0.6085    0.0000 C   0  0  0  0  0  0  0  0  0  0  0  0
   -2.4704   -0.4611    0.0000 O   0  0  0  0  0  0  0  0  0  0  0  0
   -4.5402    0.4696    0.0000 C   0  0  0  0  0  0  0  0  0  0  0  0
   -5.1666   -0.8933    0.0000 C   0  0  0  0  0  0  0  0  0  0  0  0
   -6.6375   -1.1876    0.0000 C   0  0  0  0  0  0  0  0  0  0  0  0
   -6.8121   -2.6774    0.0000 C   0  0  0  0  0  0  0  0  0  0  0  0
   -5.4492   -3.3039    0.0000 C   0  0  0  0  0  0  0  0  0  0  0  0
   -4.4323   -2.2012    0.0000 S   0  0  0  0  0  0  0  0  0  0  0  0
   -0.7877    0.6168    0.0000 C   0  0  0  0  0  0  0  0  0  0  0  0
   -1.4438   -0.4058    0.0000 O   0  0  0  0  0  0  0  0  0  0  0  0
    0.7059    0.7557    0.0000 N   0  0  0  0  0  0  0  0  0  0  0  0
    2.0688    0.1292    0.0000 C   0  0  0  0  0  0  0  0  0  0  0  0
    2.2077   -1.3643    0.0000 C   0  0  0  0  0  0  0  0  0  0  0  0
    3.5706   -1.9908    0.0000 O   0  0  0  0  0  0  0  0  0  0  0  0
    0.9837   -2.2314    0.0000 O   0  0  0  0  0  0  0  0  0  0  0  0
    3.2928    0.9963    0.0000 C   0  0  0  0  0  0  0  0  0  0  0  0
    4.6557    0.3698    0.0000 C   0  0  0  0  0  0  0  0  0  0  0  0
    4.7946   -1.1237    0.0000 O   0  0  0  0  0  0  0  0  0  0  0  0
    6.1575   -1.7502    0.0000 C   0  0  0  0  0  0  0  0  0  0  0  0
    6.2964   -3.2437    0.0000 N   0  0  0  0  0  0  0  0  0  0  0  0
    7.3815   -0.8831    0.0000 O   0  0  0  0  0  0  0  0  0  0  0  0
    3.1539    2.4899    0.0000 C   0  0  0  0  0  0  0  0  0  0  0  0
    1.7910    3.1163    0.0000 S   0  0  0  0  0  0  0  0  0  0  0  0
    0.5670    2.2493    0.0000 C   0  0  0  0  0  0  0  0  0  0  0  0
  1  2  1  0
  2  3  1  0
  3  4  1  1
  4  5  1  0
  5  6  2  0
  5  7  1  0
  7  8  1  0
  8  9  2  0
  9 10  1  0
 10 11  2  0
 11 12  1  0
  3 13  1  0
 13 14  2  0
 13 15  1  0
 15 16  1  0
 16 17  1  0
 17 18  2  0
 17 19  1  0
 16 20  2  0
 20 21  1  0
 21 22  1  0
 22 23  1  0
 23 24  1  0
 23 25  2  0
 20 26  1  0
 26 27  1  0
 28 27  1  1
 28  3  1  0
 12  8  1  0
 28 15  1  0
M  END
> <Identifier>
Drug_65

> <Carcinogen>
0

$$$$

     RDKit          2D

 15 16  0  0  0  0  0  0  0  0999 V2000
   -3.7711    1.6317    0.0000 C   0  0  0  0  0  0  0  0  0  0  0  0
   -2.5576    0.7500    0.0000 C   0  0  0  0  0  0  0  0  0  0  0  0
   -2.5576   -0.7500    0.0000 C   0  0  0  0  0  0  0  0  0  0  0  0
   -3.7711   -1.6317    0.0000 N   0  0  0  0  0  0  0  0  0  0  0  0
   -1.1310   -1.2135    0.0000 C   0  0  0  0  0  0  0  0  0  0  0  0
   -0.6675   -2.6401    0.0000 O   0  0  0  0  0  0  0  0  0  0  0  0
   -0.2493    0.0000    0.0000 N   0  0  0  0  0  0  0  0  0  0  0  0
    1.2507    0.0000    0.0000 C   0  0  0  0  0  0  0  0  0  0  0  0
    2.0007   -1.2990    0.0000 C   0  0  0  0  0  0  0  0  0  0  0  0
    3.5007   -1.2990    0.0000 C   0  0  0  0  0  0  0  0  0  0  0  0
    4.2507    0.0000    0.0000 C   0  0  0  0  0  0  0  0  0  0  0  0
    3.5007    1.2990    0.0000 C   0  0  0  0  0  0  0  0  0  0  0  0
    2.0007    1.2990    0.0000 C   0  0  0  0  0  0  0  0  0  0  0  0
   -1.1310    1.2135    0.0000 N   0  0  0  0  0  0  0  0  0  0  0  0
   -0.6675    2.6401    0.0000 C   0  0  0  0  0  0  0  0  0  0  0  0
  1  2  1  0
  2  3  2  0
  3  4  1  0
  3  5  1  0
  5  6  2  0
  5  7  1  0
  7  8  1  0
  8  9  2  0
  9 10  1  0
 10 11  2  0
 11 12  1  0
 12 13  2  0
  7 14  1  0
 14 15  1  0
 14  2  1  0
 13  8  1  0
M  END
> <Identifier>
Drug_66

> <Carcinogen>
0

$$$$

     RDKit          2D

 42 44  0  0  0  0  0  0  0  0999 V2000
   -2.5228    5.2761    0.0000 C   0  0  0  0  0  0  0  0  0  0  0  0
   -1.1641    4.6404    0.0000 C   0  0  0  0  0  0  0  0  0  0  0  0
   -1.0353    3.1460    0.0000 C   0  0  0  0  0  0  0  0  0  0  0  0
    0.3234    2.5103    0.0000 C   0  0  0  0  0  0  0  0  0  0  0  0
    1.5532    3.3691    0.0000 O   0  0  0  0  0  0  0  0  0  0  0  0
    0.4522    1.0159    0.0000 C   0  0  0  0  0  0  0  0  0  0  0  0
   -0.7776    0.1571    0.0000 C   0  0  0  0  0  0  0  0  0  0  0  0
    1.8108    0.3802    0.0000 C   0  0  0  0  0  0  0  0  0  0  0  0
    1.9397   -1.1142    0.0000 O   0  0  0  0  0  0  0  0  0  0  0  0
    3.0407    1.2390    0.0000 C   0  0  0  0  0  0  0  0  0  0  0  0
    2.9118    2.7335    0.0000 C   0  0  0  0  0  0  0  0  0  0  0  0
    4.3993    0.6034    0.0000 C   0  0  0  0  0  0  0  0  0  0  0  0
    4.5281   -0.8911    0.0000 C   0  0  0  0  0  0  0  0  0  0  0  0
    5.8868   -1.5268    0.0000 C   0  0  0  0  0  0  0  0  0  0  0  0
    6.0156   -3.0212    0.0000 C   0  0  0  0  0  0  0  0  0  0  0  0
    7.3743   -3.6569    0.0000 C   0  0  0  0  0  0  0  0  0  0  0  0
    8.6041   -2.7981    0.0000 C   0  0  0  0  0  0  0  0  0  0  0  0
    9.9628   -3.4337    0.0000 C   0  0  0  0  0  0  0  0  0  0  0  0
    8.4753   -1.3036    0.0000 C   0  0  0  0  0  0  0  0  0  0  0  0
    9.7051   -0.4448    0.0000 O   0  0  0  0  0  0  0  0  0  0  0  0
    7.1166   -0.6680    0.0000 C   0  0  0  0  0  0  0  0  0  0  0  0
    6.9878    0.8265    0.0000 C   0  0  0  0  0  0  0  0  0  0  0  0
    5.6291    1.4622    0.0000 O   0  0  0  0  0  0  0  0  0  0  0  0
    8.2176    1.6853    0.0000 O   0  0  0  0  0  0  0  0  0  0  0  0
   -2.2651    2.2872    0.0000 C   0  0  0  0  0  0  0  0  0  0  0  0
   -2.2932    0.7875    0.0000 O   0  0  0  0  0  0  0  0  0  0  0  0
   -3.7282    0.3507    0.0000 C   0  0  0  0  0  0  0  0  0  0  0  0
   -3.1439   -1.0308    0.0000 C   0  0  0  0  0  0  0  0  0  0  0  0
   -4.0481   -2.2276    0.0000 C   0  0  0  0  0  0  0  0  0  0  0  0
   -5.0411   -0.3748    0.0000 C   0  0  0  0  0  0  0  0  0  0  0  0
   -6.3258    0.3994    0.0000 C   0  0  0  0  0  0  0  0  0  0  0  0
   -7.6387   -0.3262    0.0000 C   0  0  0  0  0  0  0  0  0  0  0  0
   -7.6668   -1.8259    0.0000 C   0  0  0  0  0  0  0  0  0  0  0  0
   -9.1389   -1.5378    0.0000 O   0  0  0  0  0  0  0  0  0  0  0  0
   -8.2061   -3.2256    0.0000 C   0  0  0  0  0  0  0  0  0  0  0  0
   -9.6879   -3.4584    0.0000 C   0  0  0  0  0  0  0  0  0  0  0  0
   -6.3820   -2.6001    0.0000 C   0  0  0  0  0  0  0  0  0  0  0  0
   -6.4101   -4.0998    0.0000 C   0  0  0  0  0  0  0  0  0  0  0  0
   -5.0692   -1.8746    0.0000 O   0  0  0  0  0  0  0  0  0  0  0  0
   -4.5870    1.5805    0.0000 C   0  0  0  0  0  0  0  0  0  0  0  0
   -3.6828    2.7773    0.0000 C   0  0  0  0  0  0  0  0  0  0  0  0
   -4.1195    4.2124    0.0000 C   0  0  0  0  0  0  0  0  0  0  0  0
  1  2  1  0
  3  2  1  1
  3  4  1  0
  4  5  2  0
  4  6  1  0
  6  7  1  6
  6  8  1  0
  8  9  1  6
  8 10  1  0
 10 11  1  6
 10 12  1  0
 12 13  1  0
 13 14  1  0
 14 15  2  0
 15 16  1  0
 16 17  2  0
 17 18  1  0
 17 19  1  0
 19 20  1  0
 19 21  2  0
 21 22  1  0
 22 23  2  0
 22 24  1  0
  3 25  1  0
 25 26  1  1
 26 27  1  0
 27 28  1  1
 28 29  1  0
 27 30  1  0
 30 31  1  6
 31 32  1  0
 32 33  1  0
 33 34  1  6
 33 35  1  0
 35 36  1  0
 33 37  1  0
 37 38  1  1
 37 39  1  0
 27 40  1  0
 40 41  1  0
 41 42  1  6
 21 14  1  0
 41 25  1  0
 39 30  1  0
M  END
> <Identifier>
Drug_67

> <Carcinogen>
0

$$$$

     RDKit          2D

 41 45  0  0  0  0  0  0  0  0999 V2000
   -3.0353    3.2762    0.0000 C   0  0  0  0  0  0  0  0  0  0  0  0
   -3.4043    1.8223    0.0000 C   0  0  0  0  0  0  0  0  0  0  0  0
   -4.7720    2.4382    0.0000 C   0  0  0  0  0  0  0  0  0  0  0  0
   -4.2483    0.5823    0.0000 C   0  0  0  0  0  0  0  0  0  0  0  0
   -5.7442    0.6932    0.0000 O   0  0  0  0  0  0  0  0  0  0  0  0
   -6.5882   -0.5468    0.0000 C   0  0  0  0  0  0  0  0  0  0  0  0
   -5.9363   -1.8977    0.0000 O   0  0  0  0  0  0  0  0  0  0  0  0
   -8.0841   -0.4359    0.0000 C   0  0  0  0  0  0  0  0  0  0  0  0
   -8.9281   -1.6759    0.0000 C   0  0  0  0  0  0  0  0  0  0  0  0
  -10.4240   -1.5649    0.0000 C   0  0  0  0  0  0  0  0  0  0  0  0
  -11.0759   -0.2140    0.0000 O   0  0  0  0  0  0  0  0  0  0  0  0
  -11.2680   -2.8049    0.0000 O   0  0  0  0  0  0  0  0  0  0  0  0
   -3.5964   -0.7687    0.0000 C   0  0  0  0  0  0  0  0  0  0  0  0
   -2.1005   -0.8796    0.0000 C   0  0  0  0  0  0  0  0  0  0  0  0
   -1.2565    0.3604    0.0000 C   0  0  0  0  0  0  0  0  0  0  0  0
   -0.6046   -0.9905    0.0000 C   0  0  0  0  0  0  0  0  0  0  0  0
   -1.9084    1.7114    0.0000 C   0  0  0  0  0  0  0  0  0  0  0  0
   -1.0644    2.9514    0.0000 C   0  0  0  0  0  0  0  0  0  0  0  0
    0.4315    2.8404    0.0000 C   0  0  0  0  0  0  0  0  0  0  0  0
    1.0834    1.4895    0.0000 C   0  0  0  0  0  0  0  0  0  0  0  0
    1.9274    2.7295    0.0000 C   0  0  0  0  0  0  0  0  0  0  0  0
    0.2394    0.2495    0.0000 C   0  0  0  0  0  0  0  0  0  0  0  0
    0.8913   -1.1015    0.0000 C   0  0  0  0  0  0  0  0  0  0  0  0
    0.0472   -2.3415    0.0000 O   0  0  0  0  0  0  0  0  0  0  0  0
    2.3872   -1.2124    0.0000 C   0  0  0  0  0  0  0  0  0  0  0  0
    3.2312    0.0276    0.0000 C   0  0  0  0  0  0  0  0  0  0  0  0
    4.7271   -0.0833    0.0000 C   0  0  0  0  0  0  0  0  0  0  0  0
    5.3789   -1.4343    0.0000 C   0  0  0  0  0  0  0  0  0  0  0  0
    6.8748   -1.5452    0.0000 C   0  0  0  0  0  0  0  0  0  0  0  0
    8.2426   -2.1611    0.0000 C   0  0  0  0  0  0  0  0  0  0  0  0
    6.5058   -2.9991    0.0000 C   0  0  0  0  0  0  0  0  0  0  0  0
    7.5804   -4.0456    0.0000 O   0  0  0  0  0  0  0  0  0  0  0  0
    5.0622   -3.4065    0.0000 O   0  0  0  0  0  0  0  0  0  0  0  0
    7.7188   -0.3052    0.0000 C   0  0  0  0  0  0  0  0  0  0  0  0
    7.0670    1.0458    0.0000 C   0  0  0  0  0  0  0  0  0  0  0  0
    5.5711    1.1567    0.0000 C   0  0  0  0  0  0  0  0  0  0  0  0
    6.4151    2.3967    0.0000 C   0  0  0  0  0  0  0  0  0  0  0  0
    4.9192    2.5076    0.0000 C   0  0  0  0  0  0  0  0  0  0  0  0
    3.4233    2.6186    0.0000 C   0  0  0  0  0  0  0  0  0  0  0  0
    2.5793    1.3786    0.0000 C   0  0  0  0  0  0  0  0  0  0  0  0
    1.7353    0.1386    0.0000 C   0  0  0  0  0  0  0  0  0  0  0  0
  1  2  1  0
  2  3  1  0
  2  4  1  0
  4  5  1  6
  5  6  1  0
  6  7  2  0
  6  8  1  0
  8  9  1  0
  9 10  1  0
 10 11  2  0
 10 12  1  0
  4 13  1  0
 13 14  1  0
 14 15  1  0
 15 16  1  6
 15 17  1  0
 17 18  1  6
 18 19  1  0
 19 20  1  0
 20 21  1  6
 20 22  1  0
 22 23  1  6
 23 24  2  0
 23 25  1  0
 25 26  2  0
 26 27  1  0
 27 28  1  1
 28 29  1  0
 29 30  1  1
 29 31  1  0
 31 32  2  0
 31 33  1  0
 29 34  1  0
 34 35  1  0
 35 36  1  0
 36 37  1  6
 36 38  1  0
 38 39  1  0
 39 40  1  0
 40 41  1  1
 17  2  1  0
 40 20  1  0
 22 15  1  0
 40 26  1  0
 36 27  1  0
M  END
> <Identifier>
Drug_68

> <Carcinogen>
0

$$$$

     RDKit          2D

 30 32  0  0  0  0  0  0  0  0999 V2000
   -4.3976   -3.8329    0.0000 C   0  0  0  0  0  0  0  0  0  0  0  0
   -2.8989   -3.7706    0.0000 O   0  0  0  0  0  0  0  0  0  0  0  0
   -2.2035   -2.4416    0.0000 C   0  0  0  0  0  0  0  0  0  0  0  0
   -3.5325   -1.7461    0.0000 N   0  0  0  0  0  0  0  0  0  0  0  0
   -3.5948   -0.2474    0.0000 C   0  0  0  0  0  0  0  0  0  0  0  0
   -2.5600    0.8385    0.0000 O   0  0  0  0  0  0  0  0  0  0  0  0
   -4.9238    0.4480    0.0000 C   0  0  0  0  0  0  0  0  0  0  0  0
   -4.9861    1.9467    0.0000 S   0  0  0  0  0  0  0  0  0  0  0  0
   -6.3151    2.6422    0.0000 C   0  0  0  0  0  0  0  0  0  0  0  0
   -6.3774    4.1409    0.0000 C   0  0  0  0  0  0  0  0  0  0  0  0
   -6.4396    5.6396    0.0000 N   0  0  0  0  0  0  0  0  0  0  0  0
   -0.8744   -3.1370    0.0000 C   0  0  0  0  0  0  0  0  0  0  0  0
   -0.4264   -4.5686    0.0000 O   0  0  0  0  0  0  0  0  0  0  0  0
   -0.1790   -1.8080    0.0000 N   0  0  0  0  0  0  0  0  0  0  0  0
    1.0878   -1.0047    0.0000 C   0  0  0  0  0  0  0  0  0  0  0  0
    2.4169   -1.7002    0.0000 C   0  0  0  0  0  0  0  0  0  0  0  0
    3.6836   -0.8969    0.0000 O   0  0  0  0  0  0  0  0  0  0  0  0
    2.4791   -3.1989    0.0000 O   0  0  0  0  0  0  0  0  0  0  0  0
    1.0256    0.4940    0.0000 C   0  0  0  0  0  0  0  0  0  0  0  0
    2.2924    1.2972    0.0000 C   0  0  0  0  0  0  0  0  0  0  0  0
    3.6214    0.6018    0.0000 S   0  0  0  0  0  0  0  0  0  0  0  0
    4.8882    1.4051    0.0000 C   0  0  0  0  0  0  0  0  0  0  0  0
    4.9829    2.9021    0.0000 N   0  0  0  0  0  0  0  0  0  0  0  0
    6.4360    3.2746    0.0000 N   0  0  0  0  0  0  0  0  0  0  0  0
    7.2392    2.0078    0.0000 N   0  0  0  0  0  0  0  0  0  0  0  0
    6.2826    0.8523    0.0000 N   0  0  0  0  0  0  0  0  0  0  0  0
    6.6551   -0.6007    0.0000 C   0  0  0  0  0  0  0  0  0  0  0  0
   -0.3035    1.1894    0.0000 C   0  0  0  0  0  0  0  0  0  0  0  0
   -1.5703    0.3862    0.0000 S   0  0  0  0  0  0  0  0  0  0  0  0
   -1.5080   -1.1125    0.0000 C   0  0  0  0  0  0  0  0  0  0  0  0
  1  2  1  0
  2  3  1  0
  3  4  1  1
  4  5  1  0
  5  6  2  0
  5  7  1  0
  7  8  1  0
  8  9  1  0
  9 10  1  0
 10 11  3  0
  3 12  1  0
 12 13  2  0
 12 14  1  0
 14 15  1  0
 15 16  1  0
 16 17  2  0
 16 18  1  0
 15 19  2  0
 19 20  1  0
 20 21  1  0
 21 22  1  0
 22 23  2  0
 23 24  1  0
 24 25  2  0
 25 26  1  0
 26 27  1  0
 19 28  1  0
 28 29  1  0
 30 29  1  1
 30  3  1  0
 30 14  1  0
 26 22  1  0
M  END
> <Identifier>
Drug_69

> <Carcinogen>
0

$$$$

     RDKit          2D

 31 34  0  0  0  0  0  0  0  0999 V2000
   -7.9517    2.8263    0.0000 C   0  0  0  0  0  0  0  0  0  0  0  0
   -8.0194    1.3279    0.0000 N   0  0  0  0  0  0  0  0  0  0  0  0
   -9.2715    0.5019    0.0000 N   0  0  0  0  0  0  0  0  0  0  0  0
   -8.8729   -0.9442    0.0000 N   0  0  0  0  0  0  0  0  0  0  0  0
   -7.3744   -1.0119    0.0000 N   0  0  0  0  0  0  0  0  0  0  0  0
   -6.8470    0.3923    0.0000 C   0  0  0  0  0  0  0  0  0  0  0  0
   -5.4009    0.7910    0.0000 S   0  0  0  0  0  0  0  0  0  0  0  0
   -4.3326   -0.2620    0.0000 C   0  0  0  0  0  0  0  0  0  0  0  0
   -2.8866    0.1366    0.0000 C   0  0  0  0  0  0  0  0  0  0  0  0
   -1.8183   -0.9164    0.0000 C   0  0  0  0  0  0  0  0  0  0  0  0
   -2.1961   -2.3680    0.0000 C   0  0  0  0  0  0  0  0  0  0  0  0
   -3.6421   -2.7667    0.0000 O   0  0  0  0  0  0  0  0  0  0  0  0
   -1.1278   -3.4210    0.0000 O   0  0  0  0  0  0  0  0  0  0  0  0
   -0.3723   -0.5177    0.0000 N   0  0  0  0  0  0  0  0  0  0  0  0
    1.0794   -0.8955    0.0000 C   0  0  0  0  0  0  0  0  0  0  0  0
    1.8387   -2.1891    0.0000 O   0  0  0  0  0  0  0  0  0  0  0  0
    1.4572    0.5561    0.0000 C   0  0  0  0  0  0  0  0  0  0  0  0
    2.7508    1.3155    0.0000 N   0  0  0  0  0  0  0  0  0  0  0  0
    4.0552    0.5749    0.0000 C   0  0  0  0  0  0  0  0  0  0  0  0
    4.0660   -0.9251    0.0000 O   0  0  0  0  0  0  0  0  0  0  0  0
    5.3488    1.3342    0.0000 C   0  0  0  0  0  0  0  0  0  0  0  0
    5.3380    2.8342    0.0000 O   0  0  0  0  0  0  0  0  0  0  0  0
    6.6532    0.5936    0.0000 C   0  0  0  0  0  0  0  0  0  0  0  0
    6.6640   -0.9064    0.0000 C   0  0  0  0  0  0  0  0  0  0  0  0
    7.9684   -1.6470    0.0000 C   0  0  0  0  0  0  0  0  0  0  0  0
    9.2620   -0.8877    0.0000 C   0  0  0  0  0  0  0  0  0  0  0  0
    9.2512    0.6123    0.0000 C   0  0  0  0  0  0  0  0  0  0  0  0
    7.9468    1.3529    0.0000 C   0  0  0  0  0  0  0  0  0  0  0  0
    0.0055    0.9339    0.0000 C   0  0  0  0  0  0  0  0  0  0  0  0
   -1.0627    1.9869    0.0000 S   0  0  0  0  0  0  0  0  0  0  0  0
   -2.5088    1.5883    0.0000 C   0  0  0  0  0  0  0  0  0  0  0  0
  1  2  1  0
  2  3  1  0
  3  4  2  0
  4  5  1  0
  5  6  2  0
  6  7  1  0
  7  8  1  0
  8  9  1  0
  9 10  2  0
 10 11  1  0
 11 12  2  0
 11 13  1  0
 10 14  1  0
 14 15  1  0
 15 16  2  0
 15 17  1  0
 17 18  1  6
 18 19  1  0
 19 20  2  0
 19 21  1  0
 21 22  1  6
 21 23  1  0
 23 24  2  0
 24 25  1  0
 25 26  2  0
 26 27  1  0
 27 28  2  0
 17 29  1  0
 29 30  1  6
 30 31  1  0
  6  2  1  0
 31  9  1  0
 29 14  1  0
 28 23  1  0
M  END
> <Identifier>
Drug_70

> <Carcinogen>
0

$$$$

     RDKit          2D

 32 35  0  0  0  0  0  0  0  0999 V2000
   -5.7295    3.5053    0.0000 C   0  0  0  0  0  0  0  0  0  0  0  0
   -4.3244    2.9801    0.0000 C   0  0  0  0  0  0  0  0  0  0  0  0
   -4.0768    1.5007    0.0000 C   0  0  0  0  0  0  0  0  0  0  0  0
   -4.8237    1.0247    0.0000 O   0  0  0  0  0  0  0  0  0  0  0  0
   -2.6717    0.9755    0.0000 O   0  0  0  0  0  0  0  0  0  0  0  0
   -2.4240   -0.5039    0.0000 C   0  0  0  0  0  0  0  0  0  0  0  0
   -3.9212   -0.5956    0.0000 C   0  0  0  0  0  0  0  0  0  0  0  0
   -4.4965    0.0778    0.0000 O   0  0  0  0  0  0  0  0  0  0  0  0
   -4.5904   -1.9381    0.0000 C   0  0  0  0  0  0  0  0  0  0  0  0
   -6.0876   -2.0298    0.0000 Cl  0  0  0  0  0  0  0  0  0  0  0  0
   -2.4893   -2.0025    0.0000 C   0  0  0  0  0  0  0  0  0  0  0  0
   -3.7401   -2.8305    0.0000 C   0  0  0  0  0  0  0  0  0  0  0  0
   -1.0843   -2.5277    0.0000 C   0  0  0  0  0  0  0  0  0  0  0  0
   -0.1506   -1.3537    0.0000 C   0  0  0  0  0  0  0  0  0  0  0  0
    1.3466   -1.2621    0.0000 C   0  0  0  0  0  0  0  0  0  0  0  0
    2.1746   -2.5128    0.0000 C   0  0  0  0  0  0  0  0  0  0  0  0
    3.6718   -2.4211    0.0000 C   0  0  0  0  0  0  0  0  0  0  0  0
    4.3410   -1.0787    0.0000 C   0  0  0  0  0  0  0  0  0  0  0  0
    5.8382   -0.9870    0.0000 C   0  0  0  0  0  0  0  0  0  0  0  0
    6.5074    0.3554    0.0000 C   0  0  0  0  0  0  0  0  0  0  0  0
    8.0046    0.4471    0.0000 O   0  0  0  0  0  0  0  0  0  0  0  0
    5.6794    1.6062    0.0000 C   0  0  0  0  0  0  0  0  0  0  0  0
    4.1822    1.5145    0.0000 C   0  0  0  0  0  0  0  0  0  0  0  0
    3.5130    0.1721    0.0000 C   0  0  0  0  0  0  0  0  0  0  0  0
    2.6850    1.4228    0.0000 C   0  0  0  0  0  0  0  0  0  0  0  0
    2.0158    0.0804    0.0000 C   0  0  0  0  0  0  0  0  0  0  0  0
    0.5186   -0.0113    0.0000 F   0  0  0  0  0  0  0  0  0  0  0  0
    1.1878    1.3312    0.0000 C   0  0  0  0  0  0  0  0  0  0  0  0
    1.8570    2.6736    0.0000 O   0  0  0  0  0  0  0  0  0  0  0  0
   -0.3094    1.2395    0.0000 C   0  0  0  0  0  0  0  0  0  0  0  0
   -0.9786   -0.1030    0.0000 C   0  0  0  0  0  0  0  0  0  0  0  0
   -1.6244    1.2509    0.0000 C   0  0  0  0  0  0  0  0  0  0  0  0
  1  2  1  0
  2  3  1  0
  3  4  2  0
  3  5  1  0
  5  6  1  0
  6  7  1  0
  7  8  2  0
  7  9  1  0
  9 10  1  0
  6 11  1  0
 11 12  1  6
 11 13  1  0
 14 13  1  6
 14 15  1  0
 15 16  1  1
 16 17  1  0
 17 18  1  0
 18 19  2  0
 19 20  1  0
 20 21  2  0
 20 22  1  0
 22 23  2  0
 23 24  1  0
 24 25  1  6
 24 26  1  0
 26 27  1  1
 26 28  1  0
 28 29  1  6
 28 30  1  0
 30 31  1  0
 31 32  1  6
 31  6  1  0
 31 14  1  0
 26 15  1  0
 24 18  1  0
M  END
> <Identifier>
Drug_71

> <Carcinogen>
0

$$$$

     RDKit          2D

 32 35  0  0  0  0  0  0  0  0999 V2000
  -10.3218   -0.7095    0.0000 C   0  0  0  0  0  0  0  0  0  0  0  0
   -8.9741   -0.0509    0.0000 C   0  0  0  0  0  0  0  0  0  0  0  0
   -7.7299   -0.8887    0.0000 C   0  0  0  0  0  0  0  0  0  0  0  0
   -6.3822   -0.2301    0.0000 C   0  0  0  0  0  0  0  0  0  0  0  0
   -6.2788    1.2664    0.0000 O   0  0  0  0  0  0  0  0  0  0  0  0
   -5.1380   -1.0679    0.0000 N   0  0  0  0  0  0  0  0  0  0  0  0
   -3.7903   -0.4092    0.0000 C   0  0  0  0  0  0  0  0  0  0  0  0
   -3.6869    1.0872    0.0000 N   0  0  0  0  0  0  0  0  0  0  0  0
   -2.3392    1.7458    0.0000 C   0  0  0  0  0  0  0  0  0  0  0  0
   -1.0950    0.9080    0.0000 N   0  0  0  0  0  0  0  0  0  0  0  0
   -1.1985   -0.5884    0.0000 C   0  0  0  0  0  0  0  0  0  0  0  0
   -2.5461   -1.2470    0.0000 C   0  0  0  0  0  0  0  0  0  0  0  0
   -2.3362   -2.7323    0.0000 N   0  0  0  0  0  0  0  0  0  0  0  0
   -0.8588   -2.9916    0.0000 C   0  0  0  0  0  0  0  0  0  0  0  0
   -0.1556   -1.6666    0.0000 N   0  0  0  0  0  0  0  0  0  0  0  0
    1.3296   -1.4566    0.0000 C   0  0  0  0  0  0  0  0  0  0  0  0
    2.3725   -2.5348    0.0000 O   0  0  0  0  0  0  0  0  0  0  0  0
    3.7201   -1.8762    0.0000 C   0  0  0  0  0  0  0  0  0  0  0  0
    5.1114   -2.4370    0.0000 O   0  0  0  0  0  0  0  0  0  0  0  0
    6.2926   -1.5126    0.0000 P   0  0  0  0  0  0  0  0  0  0  0  0
    7.7189   -1.0479    0.0000 O   0  0  0  0  0  0  0  0  0  0  0  0
    6.9979   -2.8364    0.0000 O   0  0  0  0  0  0  0  0  0  0  0  0
    6.0827   -0.0273    0.0000 O   0  0  0  0  0  0  0  0  0  0  0  0
    4.6915    0.5335    0.0000 C   0  0  0  0  0  0  0  0  0  0  0  0
    3.5102   -0.3910    0.0000 C   0  0  0  0  0  0  0  0  0  0  0  0
    2.0328   -0.1317    0.0000 C   0  0  0  0  0  0  0  0  0  0  0  0
    1.3741    1.2160    0.0000 O   0  0  0  0  0  0  0  0  0  0  0  0
    2.2119    2.4602    0.0000 C   0  0  0  0  0  0  0  0  0  0  0  0
    3.7084    2.3568    0.0000 O   0  0  0  0  0  0  0  0  0  0  0  0
    1.5533    3.8079    0.0000 C   0  0  0  0  0  0  0  0  0  0  0  0
    2.3911    5.0521    0.0000 C   0  0  0  0  0  0  0  0  0  0  0  0
    1.7325    6.3998    0.0000 C   0  0  0  0  0  0  0  0  0  0  0  0
  1  2  1  0
  2  3  1  0
  3  4  1  0
  4  5  2  0
  4  6  1  0
  6  7  1  0
  7  8  2  0
  8  9  1  0
  9 10  2  0
 10 11  1  0
 11 12  2  0
 12 13  1  0
 13 14  2  0
 14 15  1  0
 16 15  1  1
 16 17  1  0
 18 17  1  1
 18 19  1  0
 19 20  1  0
 20 21  2  0
 20 22  1  0
 20 23  1  0
 23 24  1  0
 25 24  1  6
 25 26  1  0
 26 27  1  6
 27 28  1  0
 28 29  2  0
 28 30  1  0
 30 31  1  0
 31 32  1  0
 12  7  1  0
 26 16  1  0
 15 11  1  0
 25 18  1  0
M  END
> <Identifier>
Drug_72

> <Carcinogen>
0

$$$$

     RDKit          2D

 36 39  0  0  0  0  0  0  0  0999 V2000
   -2.5764    4.3570    0.0000 C   0  0  0  0  0  0  0  0  0  0  0  0
   -1.1655    3.8476    0.0000 O   0  0  0  0  0  0  0  0  0  0  0  0
   -0.9013    2.3710    0.0000 C   0  0  0  0  0  0  0  0  0  0  0  0
   -2.3779    2.1068    0.0000 N   0  0  0  0  0  0  0  0  0  0  0  0
   -2.8874    0.6960    0.0000 C   0  0  0  0  0  0  0  0  0  0  0  0
   -2.2231   -0.3213    0.0000 O   0  0  0  0  0  0  0  0  0  0  0  0
   -4.3639    0.4318    0.0000 C   0  0  0  0  0  0  0  0  0  0  0  0
   -5.3310    1.5784    0.0000 C   0  0  0  0  0  0  0  0  0  0  0  0
   -4.8215    2.9893    0.0000 O   0  0  0  0  0  0  0  0  0  0  0  0
   -6.8075    1.3143    0.0000 O   0  0  0  0  0  0  0  0  0  0  0  0
   -4.8734   -0.9790    0.0000 C   0  0  0  0  0  0  0  0  0  0  0  0
   -3.9063   -2.1257    0.0000 C   0  0  0  0  0  0  0  0  0  0  0  0
   -4.4158   -3.5365    0.0000 C   0  0  0  0  0  0  0  0  0  0  0  0
   -5.8924   -3.8007    0.0000 C   0  0  0  0  0  0  0  0  0  0  0  0
   -6.4018   -5.2115    0.0000 O   0  0  0  0  0  0  0  0  0  0  0  0
   -6.8594   -2.6540    0.0000 C   0  0  0  0  0  0  0  0  0  0  0  0
   -6.3500   -1.2432    0.0000 C   0  0  0  0  0  0  0  0  0  0  0  0
   -0.6371    0.8945    0.0000 C   0  0  0  0  0  0  0  0  0  0  0  0
   -1.2048   -0.1798    0.0000 O   0  0  0  0  0  0  0  0  0  0  0  0
    0.8394    1.1587    0.0000 N   0  0  0  0  0  0  0  0  0  0  0  0
    2.2502    0.6492    0.0000 C   0  0  0  0  0  0  0  0  0  0  0  0
    2.5144   -0.8274    0.0000 C   0  0  0  0  0  0  0  0  0  0  0  0
    3.9252   -1.3369    0.0000 O   0  0  0  0  0  0  0  0  0  0  0  0
    1.3678   -1.7944    0.0000 O   0  0  0  0  0  0  0  0  0  0  0  0
    3.3969    1.6162    0.0000 C   0  0  0  0  0  0  0  0  0  0  0  0
    4.8077    1.1068    0.0000 C   0  0  0  0  0  0  0  0  0  0  0  0
    5.0719   -0.3698    0.0000 S   0  0  0  0  0  0  0  0  0  0  0  0
    6.4827   -0.8793    0.0000 C   0  0  0  0  0  0  0  0  0  0  0  0
    7.7241   -0.0373    0.0000 N   0  0  0  0  0  0  0  0  0  0  0  0
    8.9085   -0.9579    0.0000 N   0  0  0  0  0  0  0  0  0  0  0  0
    8.3990   -2.3687    0.0000 N   0  0  0  0  0  0  0  0  0  0  0  0
    6.8998   -2.3201    0.0000 N   0  0  0  0  0  0  0  0  0  0  0  0
    5.9793   -3.5044    0.0000 C   0  0  0  0  0  0  0  0  0  0  0  0
    3.1327    3.0928    0.0000 C   0  0  0  0  0  0  0  0  0  0  0  0
    1.7218    3.6023    0.0000 O   0  0  0  0  0  0  0  0  0  0  0  0
    0.5752    2.6352    0.0000 C   0  0  0  0  0  0  0  0  0  0  0  0
  1  2  1  0
  2  3  1  0
  3  4  1  1
  4  5  1  0
  5  6  2  0
  7  5  1  1
  7  8  1  0
  8  9  2  0
  8 10  1  0
  7 11  1  0
 11 12  2  0
 12 13  1  0
 13 14  2  0
 14 15  1  0
 14 16  1  0
 16 17  2  0
  3 18  1  0
 18 19  2  0
 18 20  1  0
 20 21  1  0
 21 22  1  0
 22 23  2  0
 22 24  1  0
 21 25  2  0
 25 26  1  0
 26 27  1  0
 27 28  1  0
 28 29  2  0
 29 30  1  0
 30 31  2  0
 31 32  1  0
 32 33  1  0
 25 34  1  0
 34 35  1  0
 36 35  1  1
 36  3  1  0
 17 11  1  0
 36 20  1  0
 32 28  1  0
M  END
> <Identifier>
Drug_73

> <Carcinogen>
0

$$$$

     RDKit          2D

 30 30  0  0  0  0  0  0  0  0999 V2000
   -6.3639   -5.1593    0.0000 C   0  0  0  0  0  0  0  0  0  0  0  0
   -5.7636   -3.7847    0.0000 C   0  0  0  0  0  0  0  0  0  0  0  0
   -4.2729   -3.6172    0.0000 C   0  0  0  0  0  0  0  0  0  0  0  0
   -3.6726   -2.2426    0.0000 C   0  0  0  0  0  0  0  0  0  0  0  0
   -2.1820   -2.0752    0.0000 C   0  0  0  0  0  0  0  0  0  0  0  0
   -1.5817   -0.7005    0.0000 N   0  0  0  0  0  0  0  0  0  0  0  0
   -2.4720    0.5067    0.0000 C   0  0  0  0  0  0  0  0  0  0  0  0
   -3.9626    0.3392    0.0000 C   0  0  0  0  0  0  0  0  0  0  0  0
   -4.8529    1.5464    0.0000 C   0  0  0  0  0  0  0  0  0  0  0  0
   -6.3436    1.3790    0.0000 C   0  0  0  0  0  0  0  0  0  0  0  0
   -7.2339    2.5862    0.0000 C   0  0  0  0  0  0  0  0  0  0  0  0
   -0.0911   -0.5331    0.0000 C   0  0  0  0  0  0  0  0  0  0  0  0
    0.7992   -1.7403    0.0000 O   0  0  0  0  0  0  0  0  0  0  0  0
    0.5093    0.8415    0.0000 C   0  0  0  0  0  0  0  0  0  0  0  0
   -0.3811    2.0487    0.0000 C   0  0  0  0  0  0  0  0  0  0  0  0
   -1.8717    1.8813    0.0000 C   0  0  0  0  0  0  0  0  0  0  0  0
   -2.7620    3.0885    0.0000 C   0  0  0  0  0  0  0  0  0  0  0  0
   -2.1617    4.4631    0.0000 O   0  0  0  0  0  0  0  0  0  0  0  0
   -4.2526    2.9211    0.0000 O   0  0  0  0  0  0  0  0  0  0  0  0
    1.9999    1.0090    0.0000 N   0  0  0  0  0  0  0  0  0  0  0  0
    2.8902   -0.1983    0.0000 C   0  0  0  0  0  0  0  0  0  0  0  0
    2.2899   -1.5729    0.0000 O   0  0  0  0  0  0  0  0  0  0  0  0
    4.3808   -0.0308    0.0000 C   0  0  0  0  0  0  0  0  0  0  0  0
    4.9811    1.3438    0.0000 C   0  0  0  0  0  0  0  0  0  0  0  0
    6.4718    1.5112    0.0000 C   0  0  0  0  0  0  0  0  0  0  0  0
    7.3621    0.3040    0.0000 C   0  0  0  0  0  0  0  0  0  0  0  0
    8.8527    0.4715    0.0000 Cl  0  0  0  0  0  0  0  0  0  0  0  0
    6.7618   -1.0706    0.0000 C   0  0  0  0  0  0  0  0  0  0  0  0
    7.6521   -2.2778    0.0000 Cl  0  0  0  0  0  0  0  0  0  0  0  0
    5.2711   -1.2380    0.0000 C   0  0  0  0  0  0  0  0  0  0  0  0
  1  2  1  0
  2  3  1  0
  3  4  1  0
  4  5  1  0
  5  6  1  0
  6  7  1  0
  7  8  1  0
  8  9  1  0
  9 10  1  0
 10 11  1  0
  6 12  1  0
 12 13  2  0
 12 14  1  0
 14 15  1  0
 15 16  1  0
 16 17  1  0
 17 18  2  0
 17 19  1  0
 14 20  1  0
 20 21  1  0
 21 22  2  0
 21 23  1  0
 23 24  2  0
 24 25  1  0
 25 26  2  0
 26 27  1  0
 26 28  1  0
 28 29  1  0
 28 30  2  0
 30 23  1  0
M  END
> <Identifier>
Drug_74

> <Carcinogen>
0

$$$$

     RDKit          2D

 13 12  0  0  0  0  0  0  0  0999 V2000
    5.3719    0.6156    0.0000 C   0  0  0  0  0  0  0  0  0  0  0  0
    4.1120   -0.1984    0.0000 N   0  0  0  0  0  0  0  0  0  0  0  0
    2.7771    0.4857    0.0000 C   0  0  0  0  0  0  0  0  0  0  0  0
    1.5172   -0.3284    0.0000 C   0  0  0  0  0  0  0  0  0  0  0  0
    1.5922   -1.8265    0.0000 O   0  0  0  0  0  0  0  0  0  0  0  0
    0.1823    0.3557    0.0000 C   0  0  0  0  0  0  0  0  0  0  0  0
    0.1073    1.8538    0.0000 O   0  0  0  0  0  0  0  0  0  0  0  0
   -1.0776   -0.4583    0.0000 C   0  0  0  0  0  0  0  0  0  0  0  0
   -1.0026   -1.9564    0.0000 O   0  0  0  0  0  0  0  0  0  0  0  0
   -2.4125    0.2258    0.0000 C   0  0  0  0  0  0  0  0  0  0  0  0
   -2.4876    1.7239    0.0000 O   0  0  0  0  0  0  0  0  0  0  0  0
   -3.6724   -0.5883    0.0000 C   0  0  0  0  0  0  0  0  0  0  0  0
   -5.0074    0.0958    0.0000 O   0  0  0  0  0  0  0  0  0  0  0  0
  1  2  1  0
  2  3  1  0
  3  4  1  0
  4  5  1  0
  4  6  1  0
  6  7  1  0
  6  8  1  0
  8  9  1  0
  8 10  1  0
 10 11  1  0
 10 12  1  0
 12 13  1  0
M  END
> <Identifier>
Drug_75

> <Carcinogen>
0

$$$$

     RDKit          2D

 11 12  0  0  0  0  0  0  0  0999 V2000
    3.4185   -1.0669    0.0000 N   0  0  0  0  0  0  0  0  0  0  0  0
    2.0102   -0.5504    0.0000 C   0  0  0  0  0  0  0  0  0  0  0  0
    0.8588   -1.5117    0.0000 N   0  0  0  0  0  0  0  0  0  0  0  0
   -0.5495   -0.9951    0.0000 C   0  0  0  0  0  0  0  0  0  0  0  0
   -1.8757   -1.6960    0.0000 N   0  0  0  0  0  0  0  0  0  0  0  0
   -2.9521   -0.6513    0.0000 N   0  0  0  0  0  0  0  0  0  0  0  0
   -2.2911    0.6952    0.0000 N   0  0  0  0  0  0  0  0  0  0  0  0
   -0.8063    0.4827    0.0000 C   0  0  0  0  0  0  0  0  0  0  0  0
    0.3452    1.4440    0.0000 C   0  0  0  0  0  0  0  0  0  0  0  0
    0.0884    2.9219    0.0000 O   0  0  0  0  0  0  0  0  0  0  0  0
    1.7535    0.9275    0.0000 N   0  0  0  0  0  0  0  0  0  0  0  0
  1  2  1  0
  2  3  2  0
  3  4  1  0
  4  5  1  0
  5  6  1  0
  6  7  2  0
  7  8  1  0
  8  9  1  0
  9 10  2  0
  9 11  1  0
 11  2  1  0
  8  4  2  0
M  END
> <Identifier>
Drug_76

> <Carcinogen>
0

$$$$

     RDKit          2D

 19 21  0  0  0  0  0  0  0  0999 V2000
    0.5319   -2.7298    0.0000 C   0  0  0  0  0  0  0  0  0  0  0  0
    1.6970   -1.7851    0.0000 N   0  0  0  0  0  0  0  0  0  0  0  0
    3.1462   -2.1725    0.0000 C   0  0  0  0  0  0  0  0  0  0  0  0
    3.9624   -0.9140    0.0000 N   0  0  0  0  0  0  0  0  0  0  0  0
    3.0177    0.2512    0.0000 C   0  0  0  0  0  0  0  0  0  0  0  0
    3.4051    1.7003    0.0000 N   0  0  0  0  0  4  0  0  0  0  0  0
    2.3438    2.7603    0.0000 O   0  0  0  0  0  0  0  0  0  0  0  0
    4.8538    2.0894    0.0000 O   0  0  0  0  0  1  0  0  0  0  0  0
    1.6177   -0.2872    0.0000 C   0  0  0  0  0  0  0  0  0  0  0  0
    0.3592    0.5290    0.0000 S   0  0  0  0  0  0  0  0  0  0  0  0
   -0.9769   -0.1527    0.0000 C   0  0  0  0  0  0  0  0  0  0  0  0
   -1.0546   -1.6507    0.0000 N   0  0  0  0  0  0  0  0  0  0  0  0
   -2.3907   -2.3325    0.0000 C   0  0  0  0  0  0  0  0  0  0  0  0
   -3.6492   -1.5163    0.0000 N   0  0  0  0  0  0  0  0  0  0  0  0
   -3.5715   -0.0183    0.0000 C   0  0  0  0  0  0  0  0  0  0  0  0
   -4.6328    1.0417    0.0000 N   0  0  0  0  0  0  0  0  0  0  0  0
   -3.9526    2.3787    0.0000 C   0  0  0  0  0  0  0  0  0  0  0  0
   -2.4709    2.1449    0.0000 N   0  0  0  0  0  0  0  0  0  0  0  0
   -2.2354    0.6635    0.0000 C   0  0  0  0  0  0  0  0  0  0  0  0
  1  2  1  0
  2  3  1  0
  3  4  2  0
  4  5  1  0
  5  6  1  0
  6  7  2  0
  6  8  1  0
  5  9  2  0
  9 10  1  0
 10 11  1  0
 11 12  2  0
 12 13  1  0
 13 14  2  0
 14 15  1  0
 15 16  1  0
 16 17  1  0
 17 18  2  0
 18 19  1  0
  9  2  1  0
 19 11  1  0
 19 15  2  0
M  CHG  2   6   1   8  -1
M  END
> <Identifier>
Drug_77

> <Carcinogen>
0

$$$$

     RDKit          2D

 32 35  0  0  0  0  0  0  0  0999 V2000
   -5.5507   -2.5171    0.0000 C   0  0  0  0  0  0  0  0  0  0  0  0
   -5.3768   -1.0272    0.0000 C   0  0  0  0  0  0  0  0  0  0  0  0
   -6.8767   -1.0099    0.0000 C   0  0  0  0  0  0  0  0  0  0  0  0
   -3.9133   -1.3559    0.0000 S   0  0  0  0  0  0  0  0  0  0  0  0
   -3.1484   -0.0656    0.0000 C   0  0  0  0  0  0  0  0  0  0  0  0
   -2.0222    0.9252    0.0000 C   0  0  0  0  0  0  0  0  0  0  0  0
   -0.5252    0.8295    0.0000 N   0  0  0  0  0  0  0  0  0  0  0  0
    0.1403   -0.5148    0.0000 C   0  0  0  0  0  0  0  0  0  0  0  0
   -0.6910   -1.7633    0.0000 O   0  0  0  0  0  0  0  0  0  0  0  0
    1.6373   -0.6105    0.0000 C   0  0  0  0  0  0  0  0  0  0  0  0
    2.4687    0.6380    0.0000 N   0  0  0  0  0  0  0  0  0  0  0  0
    3.9656    0.5423    0.0000 C   0  0  0  0  0  0  0  0  0  0  0  0
    4.6312   -0.8019    0.0000 O   0  0  0  0  0  0  0  0  0  0  0  0
    4.7970    1.7908    0.0000 N   0  0  0  0  0  0  0  0  0  0  0  0
    4.2756    3.1973    0.0000 C   0  0  0  0  0  0  0  0  0  0  0  0
    5.4521    4.1278    0.0000 C   0  0  0  0  0  0  0  0  0  0  0  0
    6.7006    3.2964    0.0000 N   0  0  0  0  0  0  0  0  0  0  0  0
    6.2957    1.8521    0.0000 C   0  0  0  0  0  0  0  0  0  0  0  0
    7.2262    0.6756    0.0000 O   0  0  0  0  0  0  0  0  0  0  0  0
    2.3028   -1.9547    0.0000 C   0  0  0  0  0  0  0  0  0  0  0  0
    1.4715   -3.2033    0.0000 C   0  0  0  0  0  0  0  0  0  0  0  0
    2.1370   -4.5475    0.0000 C   0  0  0  0  0  0  0  0  0  0  0  0
    3.6340   -4.6433    0.0000 C   0  0  0  0  0  0  0  0  0  0  0  0
    4.4654   -3.3947    0.0000 C   0  0  0  0  0  0  0  0  0  0  0  0
    3.7998   -2.0505    0.0000 C   0  0  0  0  0  0  0  0  0  0  0  0
   -3.0130    2.0514    0.0000 C   0  0  0  0  0  0  0  0  0  0  0  0
   -2.9173    3.5483    0.0000 O   0  0  0  0  0  0  0  0  0  0  0  0
   -4.1392    1.0606    0.0000 N   0  0  0  0  0  0  0  0  0  0  0  0
   -5.5164    0.4663    0.0000 C   0  0  0  0  0  0  0  0  0  0  0  0
   -6.8067    1.2312    0.0000 C   0  0  0  0  0  0  0  0  0  0  0  0
   -8.1143    0.4962    0.0000 O   0  0  0  0  0  0  0  0  0  0  0  0
   -6.7895    2.7311    0.0000 O   0  0  0  0  0  0  0  0  0  0  0  0
  1  2  1  0
  2  3  1  0
  2  4  1  0
  5  4  1  1
  5  6  1  0
  6  7  1  1
  7  8  1  0
  8  9  2  0
  8 10  1  0
 10 11  1  6
 11 12  1  0
 12 13  2  0
 12 14  1  0
 14 15  1  0
 15 16  1  0
 16 17  1  0
 17 18  1  0
 18 19  2  0
 10 20  1  0
 20 21  2  0
 21 22  1  0
 22 23  2  0
 23 24  1  0
 24 25  2  0
  6 26  1  0
 26 27  2  0
 26 28  1  0
 28 29  1  0
 29 30  1  6
 30 31  2  0
 30 32  1  0
 29  2  1  0
 28  5  1  0
 18 14  1  0
 25 20  1  0
M  END
> <Identifier>
Drug_78

> <Carcinogen>
0

$$$$

     RDKit          2D

 19 20  0  0  0  0  0  0  0  0999 V2000
   -4.9080    2.2582    0.0000 C   0  0  0  0  0  0  0  0  0  0  0  0
   -3.4178    2.4292    0.0000 N   0  0  0  0  0  0  0  0  0  0  0  0
   -2.8208    3.8053    0.0000 C   0  0  0  0  0  0  0  0  0  0  0  0
   -2.5245    1.2242    0.0000 C   0  0  0  0  0  0  0  0  0  0  0  0
   -1.0343    1.3953    0.0000 C   0  0  0  0  0  0  0  0  0  0  0  0
   -0.1410    0.1903    0.0000 C   0  0  0  0  0  0  0  0  0  0  0  0
    1.3492    0.3613    0.0000 C   0  0  0  0  0  0  0  0  0  0  0  0
    2.2424   -0.8437    0.0000 C   0  0  0  0  0  0  0  0  0  0  0  0
    3.7326   -0.6726    0.0000 C   0  0  0  0  0  0  0  0  0  0  0  0
    4.3296    0.7035    0.0000 C   0  0  0  0  0  0  0  0  0  0  0  0
    5.8198    0.8746    0.0000 Cl  0  0  0  0  0  0  0  0  0  0  0  0
    3.4363    1.9085    0.0000 C   0  0  0  0  0  0  0  0  0  0  0  0
    1.9461    1.7374    0.0000 C   0  0  0  0  0  0  0  0  0  0  0  0
   -0.7380   -1.1858    0.0000 C   0  0  0  0  0  0  0  0  0  0  0  0
   -2.2282   -1.3569    0.0000 C   0  0  0  0  0  0  0  0  0  0  0  0
   -2.8252   -2.7330    0.0000 C   0  0  0  0  0  0  0  0  0  0  0  0
   -1.9319   -3.9380    0.0000 C   0  0  0  0  0  0  0  0  0  0  0  0
   -0.4417   -3.7670    0.0000 C   0  0  0  0  0  0  0  0  0  0  0  0
    0.1553   -2.3909    0.0000 N   0  0  0  0  0  0  0  0  0  0  0  0
  1  2  1  0
  2  3  1  0
  2  4  1  0
  4  5  1  0
  5  6  1  0
  6  7  1  0
  7  8  2  0
  8  9  1  0
  9 10  2  0
 10 11  1  0
 10 12  1  0
 12 13  2  0
  6 14  1  0
 14 15  2  0
 15 16  1  0
 16 17  2  0
 17 18  1  0
 18 19  2  0
 13  7  1  0
 19 14  1  0
M  END
> <Identifier>
Drug_79

> <Carcinogen>
0

$$$$

     RDKit          2D

 38 40  0  0  0  0  0  0  0  0999 V2000
  -10.3432    0.3095    0.0000 N   0  0  0  0  0  0  0  0  0  0  0  0
   -9.0108   -0.3796    0.0000 C   0  0  0  0  0  0  0  0  0  0  0  0
   -7.7479    0.4296    0.0000 C   0  0  0  0  0  0  0  0  0  0  0  0
   -6.4155   -0.2595    0.0000 C   0  0  0  0  0  0  0  0  0  0  0  0
   -6.3462   -1.7579    0.0000 O   0  0  0  0  0  0  0  0  0  0  0  0
   -5.1526    0.5498    0.0000 C   0  0  0  0  0  0  0  0  0  0  0  0
   -5.2219    2.0482    0.0000 O   0  0  0  0  0  0  0  0  0  0  0  0
   -3.8202   -0.1394    0.0000 N   0  0  0  0  0  0  0  0  0  0  0  0
   -2.5573    0.6699    0.0000 C   0  0  0  0  0  0  0  0  0  0  0  0
   -2.6266    2.1683    0.0000 C   0  0  0  0  0  0  0  0  0  0  0  0
   -1.3636    2.9775    0.0000 C   0  0  0  0  0  0  0  0  0  0  0  0
   -1.4330    4.4759    0.0000 N   0  0  0  0  0  0  0  0  0  0  0  0
   -0.0313    2.2884    0.0000 C   0  0  0  0  0  0  0  0  0  0  0  0
    1.2317    3.0977    0.0000 O   0  0  0  0  0  0  0  0  0  0  0  0
    2.5640    2.4085    0.0000 C   0  0  0  0  0  0  0  0  0  0  0  0
    2.6333    0.9101    0.0000 O   0  0  0  0  0  0  0  0  0  0  0  0
    3.9657    0.2210    0.0000 C   0  0  0  0  0  0  0  0  0  0  0  0
    4.0350   -1.2774    0.0000 C   0  0  0  0  0  0  0  0  0  0  0  0
    5.3673   -1.9665    0.0000 N   0  0  0  0  0  0  0  0  0  0  0  0
    5.2286    1.0303    0.0000 C   0  0  0  0  0  0  0  0  0  0  0  0
    6.5610    0.3411    0.0000 O   0  0  0  0  0  0  0  0  0  0  0  0
    5.1593    2.5287    0.0000 C   0  0  0  0  0  0  0  0  0  0  0  0
    6.4222    3.3379    0.0000 O   0  0  0  0  0  0  0  0  0  0  0  0
    3.8269    3.2178    0.0000 C   0  0  0  0  0  0  0  0  0  0  0  0
    3.7576    4.7162    0.0000 N   0  0  0  0  0  0  0  0  0  0  0  0
    0.0380    0.7900    0.0000 C   0  0  0  0  0  0  0  0  0  0  0  0
    1.3704    0.1009    0.0000 O   0  0  0  0  0  0  0  0  0  0  0  0
    1.4397   -1.3975    0.0000 C   0  0  0  0  0  0  0  0  0  0  0  0
    2.6927   -2.2221    0.0000 O   0  0  0  0  0  0  0  0  0  0  0  0
    2.2956   -3.6686    0.0000 C   0  0  0  0  0  0  0  0  0  0  0  0
    3.2325   -4.8401    0.0000 C   0  0  0  0  0  0  0  0  0  0  0  0
    2.6864   -6.2372    0.0000 O   0  0  0  0  0  0  0  0  0  0  0  0
    0.7972   -3.7380    0.0000 C   0  0  0  0  0  0  0  0  0  0  0  0
   -0.0274   -4.9910    0.0000 O   0  0  0  0  0  0  0  0  0  0  0  0
    0.2683   -2.3344    0.0000 C   0  0  0  0  0  0  0  0  0  0  0  0
   -0.9339   -2.1580    0.0000 O   0  0  0  0  0  0  0  0  0  0  0  0
   -1.2249   -0.0193    0.0000 C   0  0  0  0  0  0  0  0  0  0  0  0
   -1.3171   -1.2308    0.0000 O   0  0  0  0  0  0  0  0  0  0  0  0
  1  2  1  0
  2  3  1  0
  3  4  1  0
  4  5  1  0
  4  6  1  0
  6  7  2  0
  6  8  1  0
  9  8  1  6
  9 10  1  0
 10 11  1  0
 11 12  1  6
 11 13  1  0
 13 14  1  1
 14 15  1  0
 15 16  1  0
 16 17  1  0
 17 18  1  1
 18 19  1  0
 17 20  1  0
 20 21  1  6
 20 22  1  0
 22 23  1  1
 22 24  1  0
 24 25  1  6
 13 26  1  0
 26 27  1  6
 27 28  1  0
 28 29  1  0
 29 30  1  0
 30 31  1  6
 31 32  1  0
 30 33  1  0
 33 34  1  0
 33 35  1  0
 35 36  1  1
 26 37  1  0
 37 38  1  1
 37  9  1  0
 24 15  1  0
 35 28  1  0
M  END
> <Identifier>
Drug_80

> <Carcinogen>
0

$$$$

     RDKit          2D

 33 36  0  0  0  0  0  0  0  0999 V2000
   -4.0201    3.8477    0.0000 C   0  0  0  0  0  0  0  0  0  0  0  0
   -2.7441    3.0592    0.0000 N   0  0  0  0  0  0  0  0  0  0  0  0
   -1.4232    3.7700    0.0000 C   0  0  0  0  0  0  0  0  0  0  0  0
   -2.7889    1.5598    0.0000 C   0  0  0  0  0  0  0  0  0  0  0  0
   -4.1098    0.8490    0.0000 C   0  0  0  0  0  0  0  0  0  0  0  0
   -5.3858    1.6375    0.0000 O   0  0  0  0  0  0  0  0  0  0  0  0
   -4.1546   -0.6503    0.0000 C   0  0  0  0  0  0  0  0  0  0  0  0
   -5.4755   -1.3612    0.0000 C   0  0  0  0  0  0  0  0  0  0  0  0
   -6.7515   -0.5727    0.0000 N   0  0  0  0  0  0  0  0  0  0  0  0
   -5.5203   -2.8605    0.0000 O   0  0  0  0  0  0  0  0  0  0  0  0
   -2.8785   -1.4388    0.0000 C   0  0  0  0  0  0  0  0  0  0  0  0
   -2.9234   -2.9381    0.0000 O   0  0  0  0  0  0  0  0  0  0  0  0
   -1.5577   -0.7280    0.0000 C   0  0  0  0  0  0  0  0  0  0  0  0
   -1.6025   -2.2273    0.0000 O   0  0  0  0  0  0  0  0  0  0  0  0
   -0.2816   -1.5164    0.0000 C   0  0  0  0  0  0  0  0  0  0  0  0
   -0.3264   -3.0158    0.0000 O   0  0  0  0  0  0  0  0  0  0  0  0
    1.0392   -0.8056    0.0000 C   0  0  0  0  0  0  0  0  0  0  0  0
    2.3153   -1.5941    0.0000 C   0  0  0  0  0  0  0  0  0  0  0  0
    2.2705   -3.0934    0.0000 O   0  0  0  0  0  0  0  0  0  0  0  0
    3.6362   -0.8832    0.0000 C   0  0  0  0  0  0  0  0  0  0  0  0
    4.9122   -1.6717    0.0000 C   0  0  0  0  0  0  0  0  0  0  0  0
    4.8674   -3.1710    0.0000 O   0  0  0  0  0  0  0  0  0  0  0  0
    6.2331   -0.9609    0.0000 C   0  0  0  0  0  0  0  0  0  0  0  0
    6.2779    0.5385    0.0000 C   0  0  0  0  0  0  0  0  0  0  0  0
    5.0018    1.3269    0.0000 C   0  0  0  0  0  0  0  0  0  0  0  0
    5.0467    2.8263    0.0000 Cl  0  0  0  0  0  0  0  0  0  0  0  0
    3.6810    0.6161    0.0000 C   0  0  0  0  0  0  0  0  0  0  0  0
    2.4049    1.4046    0.0000 C   0  0  0  0  0  0  0  0  0  0  0  0
    1.4755    2.5819    0.0000 C   0  0  0  0  0  0  0  0  0  0  0  0
    3.4030    2.5243    0.0000 O   0  0  0  0  0  0  0  0  0  0  0  0
    1.0841    0.6937    0.0000 C   0  0  0  0  0  0  0  0  0  0  0  0
   -0.1920    1.4822    0.0000 C   0  0  0  0  0  0  0  0  0  0  0  0
   -1.5129    0.7714    0.0000 C   0  0  0  0  0  0  0  0  0  0  0  0
  1  2  1  0
  2  3  1  0
  4  2  1  1
  4  5  1  0
  5  6  1  0
  5  7  2  0
  7  8  1  0
  8  9  1  0
  8 10  2  0
  7 11  1  0
 11 12  2  0
 11 13  1  0
 13 14  1  1
 13 15  1  0
 15 16  1  0
 15 17  2  0
 17 18  1  0
 18 19  2  0
 18 20  1  0
 20 21  2  0
 21 22  1  0
 21 23  1  0
 23 24  2  0
 24 25  1  0
 25 26  1  0
 25 27  2  0
 27 28  1  0
 28 29  1  1
 28 30  1  0
 28 31  1  0
 31 32  1  0
 33 32  1  6
 33  4  1  0
 33 13  1  0
 31 17  1  0
 27 20  1  0
M  END
> <Identifier>
Drug_81

> <Carcinogen>
0

$$$$

     RDKit          2D

 22 25  0  0  0  0  0  0  0  0999 V2000
   -6.6299    0.3635    0.0000 C   0  0  0  0  0  0  0  0  0  0  0  0
   -5.5697   -0.6976    0.0000 C   0  0  0  0  0  0  0  0  0  0  0  0
   -4.1206   -0.3100    0.0000 C   0  0  0  0  0  0  0  0  0  0  0  0
   -3.0604   -1.3711    0.0000 C   0  0  0  0  0  0  0  0  0  0  0  0
   -1.6114   -0.9835    0.0000 N   0  0  0  0  0  0  0  0  0  0  0  0
   -1.2225    0.4652    0.0000 C   0  0  0  0  0  0  0  0  0  0  0  0
   -2.2827    1.5263    0.0000 C   0  0  0  0  0  0  0  0  0  0  0  0
   -3.7318    1.1387    0.0000 C   0  0  0  0  0  0  0  0  0  0  0  0
   -3.1152    0.5930    0.0000 C   0  0  0  0  0  0  0  0  0  0  0  0
   -2.1566   -0.3665    0.0000 C   0  0  0  0  0  0  0  0  0  0  0  0
    0.2265    0.8528    0.0000 C   0  0  0  0  0  0  0  0  0  0  0  0
    0.6154    2.3015    0.0000 O   0  0  0  0  0  0  0  0  0  0  0  0
    1.2867   -0.2083    0.0000 C   0  0  0  0  0  0  0  0  0  0  0  0
    0.8979   -1.6570    0.0000 C   0  0  0  0  0  0  0  0  0  0  0  0
    1.9581   -2.7181    0.0000 C   0  0  0  0  0  0  0  0  0  0  0  0
    3.4071   -2.3305    0.0000 N   0  0  0  0  0  0  0  0  0  0  0  0
    3.7960   -0.8818    0.0000 C   0  0  0  0  0  0  0  0  0  0  0  0
    5.2451   -0.4942    0.0000 C   0  0  0  0  0  0  0  0  0  0  0  0
    5.6339    0.9545    0.0000 C   0  0  0  0  0  0  0  0  0  0  0  0
    4.5737    2.0156    0.0000 C   0  0  0  0  0  0  0  0  0  0  0  0
    3.1246    1.6280    0.0000 C   0  0  0  0  0  0  0  0  0  0  0  0
    2.7358    0.1793    0.0000 C   0  0  0  0  0  0  0  0  0  0  0  0
  1  2  2  0
  3  2  1  6
  3  4  1  0
  4  5  1  0
  5  6  1  0
  6  7  1  0
  8  7  1  1
  8  9  1  0
 10  9  1  1
 10 11  1  0
 11 12  1  6
 11 13  1  0
 13 14  2  0
 14 15  1  0
 15 16  2  0
 16 17  1  0
 17 18  2  0
 18 19  1  0
 19 20  2  0
 20 21  1  0
 21 22  2  0
  8  3  1  0
 22 13  1  0
 10  5  1  0
 22 17  1  0
M  END
> <Identifier>
Drug_82

> <Carcinogen>
0

$$$$

     RDKit          2D

 31 32  0  0  0  0  0  0  0  0999 V2000
   -0.7761   -2.6480    0.0000 C   0  0  0  0  0  0  0  0  0  0  0  0
   -0.3981   -1.1964    0.0000 C   0  0  0  0  0  0  0  0  0  0  0  0
   -1.4662   -0.1432    0.0000 C   0  0  0  0  0  0  0  0  0  0  0  0
   -2.9124   -0.5417    0.0000 C   0  0  0  0  0  0  0  0  0  0  0  0
   -3.2903   -1.9933    0.0000 C   0  0  0  0  0  0  0  0  0  0  0  0
   -4.7364   -2.3918    0.0000 O   0  0  0  0  0  0  0  0  0  0  0  0
   -5.1144   -3.8434    0.0000 P   0  0  0  0  0  0  0  0  0  0  0  0
   -6.5660   -3.4654    0.0000 O   0  0  0  0  0  0  0  0  0  0  0  0
   -3.6628   -4.2213    0.0000 O   0  0  0  0  0  0  0  0  0  0  0  0
   -5.4923   -5.2950    0.0000 O   0  0  0  0  0  0  0  0  0  0  0  0
   -1.0883    1.3084    0.0000 S   0  0  0  0  0  0  0  0  0  0  0  0
   -2.1564    2.3615    0.0000 C   0  0  0  0  0  0  0  0  0  0  0  0
   -3.6025    1.9630    0.0000 O   0  0  0  0  0  0  0  0  0  0  0  0
   -1.7785    3.8131    0.0000 C   0  0  0  0  0  0  0  0  0  0  0  0
   -0.3324    4.2116    0.0000 C   0  0  0  0  0  0  0  0  0  0  0  0
    0.0456    5.6632    0.0000 C   0  0  0  0  0  0  0  0  0  0  0  0
   -1.0225    6.7163    0.0000 C   0  0  0  0  0  0  0  0  0  0  0  0
   -2.4686    6.3178    0.0000 C   0  0  0  0  0  0  0  0  0  0  0  0
   -2.8466    4.8662    0.0000 C   0  0  0  0  0  0  0  0  0  0  0  0
    1.0480   -0.7979    0.0000 N   0  0  0  0  0  0  0  0  0  0  0  0
    1.4260    0.6537    0.0000 C   0  0  0  0  0  0  0  0  0  0  0  0
    2.8721    1.0522    0.0000 O   0  0  0  0  0  0  0  0  0  0  0  0
    2.1161   -1.8510    0.0000 C   0  0  0  0  0  0  0  0  0  0  0  0
    3.5622   -1.4525    0.0000 C   0  0  0  0  0  0  0  0  0  0  0  0
    3.9402   -0.0009    0.0000 C   0  0  0  0  0  0  0  0  0  0  0  0
    5.3863    0.3975    0.0000 N   0  0  0  0  0  0  0  0  0  0  0  0
    6.4545   -0.6556    0.0000 C   0  0  0  0  0  0  0  0  0  0  0  0
    7.9006   -0.2571    0.0000 C   0  0  0  0  0  0  0  0  0  0  0  0
    6.0765   -2.1072    0.0000 N   0  0  0  0  0  0  0  0  0  0  0  0
    4.6304   -2.5057    0.0000 C   0  0  0  0  0  0  0  0  0  0  0  0
    4.2524   -3.9573    0.0000 N   0  0  0  0  0  0  0  0  0  0  0  0
  1  2  1  0
  2  3  2  0
  3  4  1  0
  4  5  1  0
  5  6  1  0
  6  7  1  0
  7  8  2  0
  7  9  1  0
  7 10  1  0
  3 11  1  0
 11 12  1  0
 12 13  2  0
 12 14  1  0
 14 15  2  0
 15 16  1  0
 16 17  2  0
 17 18  1  0
 18 19  2  0
  2 20  1  0
 20 21  1  0
 21 22  2  0
 20 23  1  0
 23 24  1  0
 24 25  2  0
 25 26  1  0
 26 27  2  0
 27 28  1  0
 27 29  1  0
 29 30  2  0
 30 31  1  0
 19 14  1  0
 30 24  1  0
M  END
> <Identifier>
Drug_83

> <Carcinogen>
0

$$$$

     RDKit          2D

 31 36  0  0  0  0  0  0  0  0999 V2000
    3.4676    2.1497    0.0000 C   0  0  0  0  0  0  0  0  0  0  0  0
    3.1956    0.6745    0.0000 C   0  0  0  0  0  0  0  0  0  0  0  0
    1.8423    0.0275    0.0000 C   0  0  0  0  0  0  0  0  0  0  0  0
    2.0395   -1.4595    0.0000 C   0  0  0  0  0  0  0  0  0  0  0  0
    0.6863   -2.1065    0.0000 C   0  0  0  0  0  0  0  0  0  0  0  0
   -0.3473   -1.0194    0.0000 C   0  0  0  0  0  0  0  0  0  0  0  0
   -1.8468   -1.0601    0.0000 C   0  0  0  0  0  0  0  0  0  0  0  0
   -2.5612   -2.3790    0.0000 C   0  0  0  0  0  0  0  0  0  0  0  0
   -4.0607   -2.4197    0.0000 C   0  0  0  0  0  0  0  0  0  0  0  0
   -4.8456   -1.1415    0.0000 C   0  0  0  0  0  0  0  0  0  0  0  0
   -6.3451   -1.1822    0.0000 C   0  0  0  0  0  0  0  0  0  0  0  0
   -7.1300    0.0961    0.0000 C   0  0  0  0  0  0  0  0  0  0  0  0
   -8.6295    0.0554    0.0000 O   0  0  0  0  0  0  0  0  0  0  0  0
   -6.4156    1.4150    0.0000 C   0  0  0  0  0  0  0  0  0  0  0  0
   -4.9161    1.4556    0.0000 C   0  0  0  0  0  0  0  0  0  0  0  0
   -4.1312    0.1774    0.0000 C   0  0  0  0  0  0  0  0  0  0  0  0
   -3.4167    1.4963    0.0000 C   0  0  0  0  0  0  0  0  0  0  0  0
   -2.6317    0.2181    0.0000 C   0  0  0  0  0  0  0  0  0  0  0  0
   -1.9172    1.5370    0.0000 C   0  0  0  0  0  0  0  0  0  0  0  0
   -0.4178    1.5777    0.0000 C   0  0  0  0  0  0  0  0  0  0  0  0
    0.2967    2.8966    0.0000 O   0  0  0  0  0  0  0  0  0  0  0  0
    0.3672    0.2994    0.0000 C   0  0  0  0  0  0  0  0  0  0  0  0
    1.2156    1.5364    0.0000 C   0  0  0  0  0  0  0  0  0  0  0  0
    3.5147   -1.7315    0.0000 O   0  0  0  0  0  0  0  0  0  0  0  0
    4.2292   -0.4126    0.0000 C   0  0  0  0  0  0  0  0  0  0  0  0
    5.1434   -1.6017    0.0000 C   0  0  0  0  0  0  0  0  0  0  0  0
    6.6304   -1.4045    0.0000 C   0  0  0  0  0  0  0  0  0  0  0  0
    7.2031   -0.0182    0.0000 C   0  0  0  0  0  0  0  0  0  0  0  0
    8.6901    0.1790    0.0000 C   0  0  0  0  0  0  0  0  0  0  0  0
    6.2889    1.1710    0.0000 C   0  0  0  0  0  0  0  0  0  0  0  0
    4.8019    0.9738    0.0000 O   0  0  0  0  0  0  0  0  0  0  0  0
  2  1  1  6
  2  3  1  0
  3  4  1  1
  4  5  1  1
  6  5  1  1
  6  7  1  0
  7  8  1  6
  8  9  1  0
 10  9  1  1
 10 11  1  0
 11 12  1  0
 12 13  1  1
 12 14  1  0
 14 15  1  0
 15 16  1  0
 16 17  1  1
 16 18  1  0
 18 19  1  1
 19 20  1  0
 20 21  2  0
 20 22  1  0
 22 23  1  1
  4 24  1  0
 24 25  1  0
 25 26  1  1
 26 27  1  0
 27 28  1  0
 28 29  1  6
 28 30  1  0
 30 31  1  0
 25  2  1  0
 22  3  1  0
 31 25  1  0
 22  6  1  0
 18  7  1  0
 16 10  1  0
M  END
> <Identifier>
Drug_84

> <Carcinogen>
0

$$$$

     RDKit          2D

 27 30  0  0  0  0  0  0  0  0999 V2000
   -5.1023   -2.0364    0.0000 C   0  0  0  0  0  0  0  0  0  0  0  0
   -3.8978   -1.1425    0.0000 C   0  0  0  0  0  0  0  0  0  0  0  0
   -4.0697    0.3476    0.0000 C   0  0  0  0  0  0  0  0  0  0  0  0
   -5.4461    0.9438    0.0000 C   0  0  0  0  0  0  0  0  0  0  0  0
   -5.6180    2.4339    0.0000 C   0  0  0  0  0  0  0  0  0  0  0  0
   -4.4135    3.3278    0.0000 O   0  0  0  0  0  0  0  0  0  0  0  0
   -6.9944    3.0301    0.0000 O   0  0  0  0  0  0  0  0  0  0  0  0
   -2.5213   -1.7387    0.0000 C   0  0  0  0  0  0  0  0  0  0  0  0
   -2.1946   -3.2027    0.0000 C   0  0  0  0  0  0  0  0  0  0  0  0
   -0.7013   -3.3444    0.0000 C   0  0  0  0  0  0  0  0  0  0  0  0
   -0.1051   -1.9679    0.0000 C   0  0  0  0  0  0  0  0  0  0  0  0
    1.3167   -1.4900    0.0000 C   0  0  0  0  0  0  0  0  0  0  0  0
    2.4415   -2.4823    0.0000 C   0  0  0  0  0  0  0  0  0  0  0  0
    3.8633   -2.0044    0.0000 C   0  0  0  0  0  0  0  0  0  0  0  0
    4.1603   -0.5341    0.0000 C   0  0  0  0  0  0  0  0  0  0  0  0
    5.5821   -0.0561    0.0000 C   0  0  0  0  0  0  0  0  0  0  0  0
    5.8791    1.4142    0.0000 C   0  0  0  0  0  0  0  0  0  0  0  0
    7.3009    1.8921    0.0000 O   0  0  0  0  0  0  0  0  0  0  0  0
    4.7543    2.4065    0.0000 C   0  0  0  0  0  0  0  0  0  0  0  0
    3.3325    1.9286    0.0000 C   0  0  0  0  0  0  0  0  0  0  0  0
    3.0355    0.4583    0.0000 C   0  0  0  0  0  0  0  0  0  0  0  0
    1.9107    1.4506    0.0000 C   0  0  0  0  0  0  0  0  0  0  0  0
    1.6137   -0.0197    0.0000 C   0  0  0  0  0  0  0  0  0  0  0  0
    0.4888    0.9727    0.0000 C   0  0  0  0  0  0  0  0  0  0  0  0
   -0.9330    0.4947    0.0000 C   0  0  0  0  0  0  0  0  0  0  0  0
   -1.2300   -0.9756    0.0000 C   0  0  0  0  0  0  0  0  0  0  0  0
   -2.4524   -0.1062    0.0000 C   0  0  0  0  0  0  0  0  0  0  0  0
  2  1  1  6
  2  3  1  0
  3  4  1  0
  4  5  1  0
  5  6  2  0
  5  7  1  0
  2  8  1  0
  8  9  1  6
  9 10  1  0
 11 10  1  6
 11 12  1  0
 12 13  1  1
 13 14  1  0
 15 14  1  1
 15 16  1  0
 16 17  1  0
 17 18  1  1
 17 19  1  0
 19 20  1  0
 20 21  1  0
 21 22  1  6
 21 23  1  0
 23 24  1  6
 24 25  1  0
 25 26  1  0
 26 27  1  6
 26  8  1  0
 26 11  1  0
 23 12  1  0
 21 15  1  0
M  END
> <Identifier>
Drug_85

> <Carcinogen>
0

$$$$

     RDKit          2D

 12 12  0  0  0  0  0  0  0  0999 V2000
   -3.0584    1.8300    0.0000 C   0  0  0  0  0  0  0  0  0  0  0  0
   -3.1274    0.3316    0.0000 N   0  0  0  0  0  0  0  0  0  0  0  0
   -1.8642   -0.4773    0.0000 C   0  0  0  0  0  0  0  0  0  0  0  0
   -1.0553    0.7859    0.0000 C   0  0  0  0  0  0  0  0  0  0  0  0
   -2.6731   -1.7405    0.0000 C   0  0  0  0  0  0  0  0  0  0  0  0
   -0.6010   -1.2862    0.0000 C   0  0  0  0  0  0  0  0  0  0  0  0
    0.7311   -0.5967    0.0000 C   0  0  0  0  0  0  0  0  0  0  0  0
    0.8001    0.9017    0.0000 C   0  0  0  0  0  0  0  0  0  0  0  0
    2.1322    1.5912    0.0000 C   0  0  0  0  0  0  0  0  0  0  0  0
    3.3954    0.7822    0.0000 C   0  0  0  0  0  0  0  0  0  0  0  0
    3.3264   -0.7162    0.0000 C   0  0  0  0  0  0  0  0  0  0  0  0
    1.9943   -1.4057    0.0000 C   0  0  0  0  0  0  0  0  0  0  0  0
  1  2  1  0
  2  3  1  0
  3  4  1  0
  3  5  1  0
  3  6  1  0
  6  7  1  0
  7  8  2  0
  8  9  1  0
  9 10  2  0
 10 11  1  0
 11 12  2  0
 12  7  1  0
M  END
> <Identifier>
Drug_86

> <Carcinogen>
0

$$$$

     RDKit          2D

 33 37  0  0  0  0  0  0  0  0999 V2000
    2.4138   -3.4759    0.0000 C   0  0  0  0  0  0  0  0  0  0  0  0
    3.8262   -2.9708    0.0000 C   0  0  0  0  0  0  0  0  0  0  0  0
    4.9698   -3.9415    0.0000 C   0  0  0  0  0  0  0  0  0  0  0  0
    4.0951   -1.4951    0.0000 C   0  0  0  0  0  0  0  0  0  0  0  0
    5.4469   -0.8452    0.0000 C   0  0  0  0  0  0  0  0  0  0  0  0
    5.2466    0.6414    0.0000 C   0  0  0  0  0  0  0  0  0  0  0  0
    3.7709    0.9102    0.0000 C   0  0  0  0  0  0  0  0  0  0  0  0
    4.6167    2.1490    0.0000 C   0  0  0  0  0  0  0  0  0  0  0  0
    3.9667    3.5009    0.0000 O   0  0  0  0  0  0  0  0  0  0  0  0
    6.1124    2.0359    0.0000 O   0  0  0  0  0  0  0  0  0  0  0  0
    2.9832    2.1867    0.0000 C   0  0  0  0  0  0  0  0  0  0  0  0
    1.4838    2.1429    0.0000 C   0  0  0  0  0  0  0  0  0  0  0  0
    0.7721    0.8224    0.0000 C   0  0  0  0  0  0  0  0  0  0  0  0
   -0.0155    2.0990    0.0000 C   0  0  0  0  0  0  0  0  0  0  0  0
    1.5598   -0.4541    0.0000 C   0  0  0  0  0  0  0  0  0  0  0  0
    0.8481   -1.7745    0.0000 C   0  0  0  0  0  0  0  0  0  0  0  0
   -0.6512   -1.8184    0.0000 C   0  0  0  0  0  0  0  0  0  0  0  0
   -1.4389   -0.5419    0.0000 C   0  0  0  0  0  0  0  0  0  0  0  0
   -2.9383   -0.5857    0.0000 C   0  0  0  0  0  0  0  0  0  0  0  0
   -2.1506   -1.8623    0.0000 C   0  0  0  0  0  0  0  0  0  0  0  0
   -3.6499   -1.9062    0.0000 C   0  0  0  0  0  0  0  0  0  0  0  0
   -5.1493   -1.9500    0.0000 C   0  0  0  0  0  0  0  0  0  0  0  0
   -5.9370   -0.6735    0.0000 C   0  0  0  0  0  0  0  0  0  0  0  0
   -7.4363   -0.7174    0.0000 O   0  0  0  0  0  0  0  0  0  0  0  0
   -5.2253    0.6469    0.0000 C   0  0  0  0  0  0  0  0  0  0  0  0
   -5.0081    2.1311    0.0000 C   0  0  0  0  0  0  0  0  0  0  0  0
   -6.6492    1.1185    0.0000 C   0  0  0  0  0  0  0  0  0  0  0  0
   -3.7259    0.6908    0.0000 C   0  0  0  0  0  0  0  0  0  0  0  0
   -3.0142    2.0112    0.0000 C   0  0  0  0  0  0  0  0  0  0  0  0
   -1.5149    2.0551    0.0000 C   0  0  0  0  0  0  0  0  0  0  0  0
   -0.7272    0.7786    0.0000 C   0  0  0  0  0  0  0  0  0  0  0  0
    0.0605   -0.4980    0.0000 C   0  0  0  0  0  0  0  0  0  0  0  0
    3.0592   -0.4102    0.0000 C   0  0  0  0  0  0  0  0  0  0  0  0
  1  2  2  0
  2  3  1  0
  4  2  1  1
  4  5  1  0
  5  6  1  0
  6  7  1  0
  7  8  1  6
  8  9  2  0
  8 10  1  0
  7 11  1  0
 11 12  1  0
 12 13  1  0
 13 14  1  1
 13 15  1  0
 15 16  1  1
 16 17  1  0
 18 17  1  6
 18 19  1  0
 19 20  1  6
 19 21  1  0
 21 22  1  0
 22 23  1  0
 23 24  1  6
 23 25  1  0
 25 26  1  0
 25 27  1  0
 25 28  1  0
 28 29  1  6
 29 30  1  0
 30 31  1  0
 31 32  1  6
 15 33  1  0
 33  4  1  6
 33  7  1  0
 31 13  1  0
 31 18  1  0
 28 19  1  0
M  END
> <Identifier>
Drug_87

> <Carcinogen>
0

$$$$

     RDKit          2D

 27 32  0  0  0  0  0  0  0  0999 V2000
    0.9949    3.0244    0.0000 C   0  0  0  0  0  0  0  0  0  0  0  0
   -0.4249    2.5403    0.0000 N   0  0  0  0  0  0  0  0  0  0  0  0
   -1.5539    3.5279    0.0000 C   0  0  0  0  0  0  0  0  0  0  0  0
   -2.9737    3.0438    0.0000 C   0  0  0  0  0  0  0  0  0  0  0  0
   -3.2644    1.5722    0.0000 C   0  0  0  0  0  0  0  0  0  0  0  0
   -4.6841    1.0882    0.0000 C   0  0  0  0  0  0  0  0  0  0  0  0
   -4.9748   -0.3834    0.0000 C   0  0  0  0  0  0  0  0  0  0  0  0
   -3.8457   -1.3709    0.0000 C   0  0  0  0  0  0  0  0  0  0  0  0
   -2.4260   -0.8868    0.0000 C   0  0  0  0  0  0  0  0  0  0  0  0
   -2.1353    0.5847    0.0000 C   0  0  0  0  0  0  0  0  0  0  0  0
   -0.7155    1.0688    0.0000 C   0  0  0  0  0  0  0  0  0  0  0  0
    0.4135    0.0812    0.0000 C   0  0  0  0  0  0  0  0  0  0  0  0
    0.2783   -1.4126    0.0000 O   0  0  0  0  0  0  0  0  0  0  0  0
    1.6572   -2.0029    0.0000 C   0  0  0  0  0  0  0  0  0  0  0  0
    1.9902   -3.4655    0.0000 O   0  0  0  0  0  0  0  0  0  0  0  0
    2.6448   -0.8739    0.0000 C   0  0  0  0  0  0  0  0  0  0  0  0
    1.8761    0.4142    0.0000 C   0  0  0  0  0  0  0  0  0  0  0  0
    2.6073    1.7240    0.0000 C   0  0  0  0  0  0  0  0  0  0  0  0
    4.1071    1.7456    0.0000 C   0  0  0  0  0  0  0  0  0  0  0  0
    4.8758    0.4575    0.0000 C   0  0  0  0  0  0  0  0  0  0  0  0
    4.1446   -0.8522    0.0000 C   0  0  0  0  0  0  0  0  0  0  0  0
    5.1643   -1.9524    0.0000 O   0  0  0  0  0  0  0  0  0  0  0  0
    6.5256   -1.3226    0.0000 C   0  0  0  0  0  0  0  0  0  0  0  0
    6.3474    0.1668    0.0000 O   0  0  0  0  0  0  0  0  0  0  0  0
   -4.4360   -2.7499    0.0000 O   0  0  0  0  0  0  0  0  0  0  0  0
   -5.9299   -2.6146    0.0000 C   0  0  0  0  0  0  0  0  0  0  0  0
   -6.2629   -1.1520    0.0000 O   0  0  0  0  0  0  0  0  0  0  0  0
  1  2  1  0
  2  3  1  0
  3  4  1  0
  4  5  1  0
  5  6  2  0
  6  7  1  0
  7  8  2  0
  8  9  1  0
  9 10  2  0
 10 11  1  0
 11 12  1  0
 12 13  1  1
 13 14  1  0
 14 15  2  0
 14 16  1  0
 16 17  2  0
 17 18  1  0
 18 19  2  0
 19 20  1  0
 20 21  2  0
 21 22  1  0
 22 23  1  0
 23 24  1  0
  8 25  1  0
 25 26  1  0
 26 27  1  0
 11  2  1  6
 17 12  1  0
 24 20  1  0
 10  5  1  0
 21 16  1  0
 27  7  1  0
M  END
> <Identifier>
Drug_88

> <Carcinogen>
0

$$$$

     RDKit          2D

  9  9  0  0  0  0  0  0  0  0999 V2000
   -1.6541   -1.6371    0.0000 C   0  0  0  0  0  0  0  0  0  0  0  0
   -1.0881   -0.2480    0.0000 C   0  0  0  0  0  0  0  0  0  0  0  0
   -2.5544    0.0682    0.0000 O   0  0  0  0  0  0  0  0  0  0  0  0
   -1.0313    1.2510    0.0000 C   0  0  0  0  0  0  0  0  0  0  0  0
    0.2952    1.9512    0.0000 C   0  0  0  0  0  0  0  0  0  0  0  0
    1.5649    1.1526    0.0000 O   0  0  0  0  0  0  0  0  0  0  0  0
    1.5081   -0.3463    0.0000 C   0  0  0  0  0  0  0  0  0  0  0  0
    2.7779   -1.1450    0.0000 O   0  0  0  0  0  0  0  0  0  0  0  0
    0.1816   -1.0466    0.0000 C   0  0  0  0  0  0  0  0  0  0  0  0
  1  2  1  0
  2  3  1  0
  2  4  1  0
  4  5  1  0
  5  6  1  0
  6  7  1  0
  7  8  2  0
  7  9  1  0
  9  2  1  0
M  END
> <Identifier>
Drug_89

> <Carcinogen>
0

$$$$

     RDKit          2D

 47 51  0  0  0  0  0  0  0  0999 V2000
    4.6783    1.8029    0.0000 C   0  0  0  0  0  0  0  0  0  0  0  0
    3.1788    1.8425    0.0000 C   0  0  0  0  0  0  0  0  0  0  0  0
    2.3948    0.5638    0.0000 C   0  0  0  0  0  0  0  0  0  0  0  0
    3.7485   -0.0823    0.0000 C   0  0  0  0  0  0  0  0  0  0  0  0
    5.0669    0.6330    0.0000 O   0  0  0  0  0  0  0  0  0  0  0  0
    6.1547   -0.3998    0.0000 C   0  0  0  0  0  0  0  0  0  0  0  0
    7.6296   -0.1268    0.0000 C   0  0  0  0  0  0  0  0  0  0  0  0
    8.6035   -1.2677    0.0000 O   0  0  0  0  0  0  0  0  0  0  0  0
   10.0784   -0.9947    0.0000 C   0  0  0  0  0  0  0  0  0  0  0  0
   10.0911   -2.4947    0.0000 O   0  0  0  0  0  0  0  0  0  0  0  0
   11.5578   -1.2427    0.0000 C   0  0  0  0  0  0  0  0  0  0  0  0
   12.0827   -2.6478    0.0000 O   0  0  0  0  0  0  0  0  0  0  0  0
   10.5795    0.4191    0.0000 C   0  0  0  0  0  0  0  0  0  0  0  0
   12.0545    0.6921    0.0000 C   0  0  0  0  0  0  0  0  0  0  0  0
    9.6057    1.5600    0.0000 C   0  0  0  0  0  0  0  0  0  0  0  0
    8.1307    1.2870    0.0000 C   0  0  0  0  0  0  0  0  0  0  0  0
    7.1568    2.4279    0.0000 C   0  0  0  0  0  0  0  0  0  0  0  0
    5.5085   -1.7535    0.0000 C   0  0  0  0  0  0  0  0  0  0  0  0
    4.0214   -1.5573    0.0000 C   0  0  0  0  0  0  0  0  0  0  0  0
    2.9886   -2.6451    0.0000 C   0  0  0  0  0  0  0  0  0  0  0  0
    1.8937   -0.8500    0.0000 C   0  0  0  0  0  0  0  0  0  0  0  0
    0.3942   -0.8104    0.0000 C   0  0  0  0  0  0  0  0  0  0  0  0
   -0.0314    0.6280    0.0000 C   0  0  0  0  0  0  0  0  0  0  0  0
   -1.4453    1.1290    0.0000 C   0  0  0  0  0  0  0  0  0  0  0  0
   -0.7991    2.4828    0.0000 C   0  0  0  0  0  0  0  0  0  0  0  0
   -1.7958   -0.3294    0.0000 C   0  0  0  0  0  0  0  0  0  0  0  0
   -3.2912   -0.4467    0.0000 C   0  0  0  0  0  0  0  0  0  0  0  0
   -3.8649    0.9393    0.0000 C   0  0  0  0  0  0  0  0  0  0  0  0
   -4.2905    2.3776    0.0000 C   0  0  0  0  0  0  0  0  0  0  0  0
   -5.7490    2.7282    0.0000 C   0  0  0  0  0  0  0  0  0  0  0  0
   -6.1746    4.1665    0.0000 O   0  0  0  0  0  0  0  0  0  0  0  0
   -6.7818    1.6404    0.0000 C   0  0  0  0  0  0  0  0  0  0  0  0
   -8.2403    1.9909    0.0000 C   0  0  0  0  0  0  0  0  0  0  0  0
   -6.3562    0.2020    0.0000 C   0  0  0  0  0  0  0  0  0  0  0  0
   -7.3890   -0.8858    0.0000 C   0  0  0  0  0  0  0  0  0  0  0  0
   -6.9634   -2.3241    0.0000 C   0  0  0  0  0  0  0  0  0  0  0  0
   -8.8475   -0.5352    0.0000 C   0  0  0  0  0  0  0  0  0  0  0  0
   -9.2731    0.9031    0.0000 O   0  0  0  0  0  0  0  0  0  0  0  0
  -10.7316    1.2537    0.0000 C   0  0  0  0  0  0  0  0  0  0  0  0
   -9.8803   -1.6230    0.0000 C   0  0  0  0  0  0  0  0  0  0  0  0
  -11.3387   -1.2724    0.0000 C   0  0  0  0  0  0  0  0  0  0  0  0
   -9.4546   -3.0613    0.0000 C   0  0  0  0  0  0  0  0  0  0  0  0
   -7.9962   -3.4119    0.0000 O   0  0  0  0  0  0  0  0  0  0  0  0
  -10.4875   -4.1491    0.0000 O   0  0  0  0  0  0  0  0  0  0  0  0
   -4.8977   -0.1485    0.0000 O   0  0  0  0  0  0  0  0  0  0  0  0
   -2.7240    1.9131    0.0000 O   0  0  0  0  0  0  0  0  0  0  0  0
    1.2050    1.4772    0.0000 O   0  0  0  0  0  0  0  0  0  0  0  0
  1  2  1  0
  3  2  1  1
  3  4  1  0
  4  5  1  6
  5  6  1  0
  6  7  1  0
  7  8  1  6
  8  9  1  0
  9 10  1  1
  9 11  1  0
 11 12  1  0
  9 13  1  0
 13 14  1  1
 13 15  1  0
 15 16  1  0
 16 17  1  1
  6 18  1  1
 18 19  1  0
 19 20  1  6
  3 21  1  0
 21 22  1  0
 23 22  1  6
 23 24  1  0
 24 25  1  1
 24 26  1  0
 26 27  1  0
 28 27  1  6
 28 29  1  0
 29 30  1  0
 30 31  1  1
 30 32  1  0
 32 33  1  6
 32 34  1  0
 34 35  1  0
 35 36  1  1
 35 37  1  0
 37 38  1  6
 38 39  1  0
 37 40  1  0
 40 41  1  1
 40 42  1  0
 42 43  2  0
 42 44  1  0
 34 45  1  6
 28 46  1  0
 23 47  1  0
 47  3  1  0
 19  4  1  0
 46 24  1  0
 16  7  1  0
 45 28  1  0
M  END
> <Identifier>
Drug_90

> <Carcinogen>
0

$$$$

     RDKit          2D

 29 33  0  0  0  0  0  0  0  0999 V2000
   -2.2393    4.1134    0.0000 O   0  0  0  0  0  0  0  0  0  0  0  0
   -1.3191    2.9289    0.0000 C   0  0  0  0  0  0  0  0  0  0  0  0
   -1.7365    1.4881    0.0000 O   0  0  0  0  0  0  0  0  0  0  0  0
   -0.4952    0.6459    0.0000 C   0  0  0  0  0  0  0  0  0  0  0  0
   -1.7695   -0.1455    0.0000 C   0  0  0  0  0  0  0  0  0  0  0  0
   -3.0919    0.5624    0.0000 C   0  0  0  0  0  0  0  0  0  0  0  0
   -4.3662   -0.2290    0.0000 C   0  0  0  0  0  0  0  0  0  0  0  0
   -5.6887    0.4788    0.0000 Br  0  0  0  0  0  0  0  0  0  0  0  0
   -4.3179   -1.7283    0.0000 C   0  0  0  0  0  0  0  0  0  0  0  0
   -5.5922   -2.5197    0.0000 O   0  0  0  0  0  0  0  0  0  0  0  0
   -2.9954   -2.4361    0.0000 C   0  0  0  0  0  0  0  0  0  0  0  0
   -1.7212   -1.6447    0.0000 C   0  0  0  0  0  0  0  0  0  0  0  0
   -0.3987   -2.3525    0.0000 O   0  0  0  0  0  0  0  0  0  0  0  0
    0.8755   -1.5611    0.0000 C   0  0  0  0  0  0  0  0  0  0  0  0
    0.8273   -0.0619    0.0000 C   0  0  0  0  0  0  0  0  0  0  0  0
    2.1015    0.7295    0.0000 C   0  0  0  0  0  0  0  0  0  0  0  0
    3.4240    0.0217    0.0000 C   0  0  0  0  0  0  0  0  0  0  0  0
    4.6982    0.8131    0.0000 Br  0  0  0  0  0  0  0  0  0  0  0  0
    3.4723   -1.4775    0.0000 C   0  0  0  0  0  0  0  0  0  0  0  0
    4.7948   -2.1854    0.0000 O   0  0  0  0  0  0  0  0  0  0  0  0
    2.1980   -2.2689    0.0000 C   0  0  0  0  0  0  0  0  0  0  0  0
    2.2463   -3.7682    0.0000 Hg  0  0  0  0  0  2  0  0  0  0  0  0
    2.2945   -5.2674    0.0000 O   0  0  0  0  0  0  0  0  0  0  0  0
    0.6893    1.5662    0.0000 C   0  0  0  0  0  0  0  0  0  0  0  0
    1.9282    1.9601    0.0000 C   0  0  0  0  0  0  0  0  0  0  0  0
    2.4441    2.5716    0.0000 C   0  0  0  0  0  0  0  0  0  0  0  0
    2.1725    3.3241    0.0000 C   0  0  0  0  0  0  0  0  0  0  0  0
    1.3851    3.4651    0.0000 C   0  0  0  0  0  0  0  0  0  0  0  0
    0.1801    2.9771    0.0000 C   0  0  0  0  0  0  0  0  0  0  0  0
  1  2  2  0
  2  3  1  0
  3  4  1  0
  4  5  1  0
  5  6  2  0
  6  7  1  0
  7  8  1  0
  7  9  2  0
  9 10  1  0
  9 11  1  0
 11 12  2  0
 12 13  1  0
 13 14  1  0
 14 15  2  0
 15 16  1  0
 16 17  2  0
 17 18  1  0
 17 19  1  0
 19 20  1  0
 19 21  2  0
 21 22  1  0
 22 23  1  0
  4 24  1  0
 24 25  2  0
 25 26  1  0
 26 27  2  0
 27 28  1  0
 28 29  2  0
 29  2  1  0
 15  4  1  0
 29 24  1  0
 12  5  1  0
 21 14  1  0
M  END
> <Identifier>
Drug_91

> <Carcinogen>
0

$$$$

     RDKit          2D

 25 26  0  0  0  0  0  0  0  0999 V2000
   -0.0815   -1.7896    0.0000 O   0  0  0  0  0  0  0  0  0  0  0  0
    0.2871   -0.3356    0.0000 C   0  0  0  0  0  0  0  0  0  0  0  0
    1.7307    0.0722    0.0000 C   0  0  0  0  0  0  0  0  0  0  0  0
    2.8055   -0.9741    0.0000 C   0  0  0  0  0  0  0  0  0  0  0  0
    4.2491   -0.5663    0.0000 C   0  0  0  0  0  0  0  0  0  0  0  0
    5.3239   -1.6125    0.0000 C   0  0  0  0  0  0  0  0  0  0  0  0
    6.7674   -1.2048    0.0000 C   0  0  0  0  0  0  0  0  0  0  0  0
    7.1361    0.2492    0.0000 C   0  0  0  0  0  0  0  0  0  0  0  0
    8.5796    0.6570    0.0000 O   0  0  0  0  0  0  0  0  0  0  0  0
    6.0612    1.2954    0.0000 C   0  0  0  0  0  0  0  0  0  0  0  0
    6.4298    2.7494    0.0000 O   0  0  0  0  0  0  0  0  0  0  0  0
    4.6177    0.8877    0.0000 C   0  0  0  0  0  0  0  0  0  0  0  0
   -0.7877    0.7107    0.0000 O   0  0  0  0  0  0  0  0  0  0  0  0
   -2.2313    0.3029    0.0000 C   0  0  0  0  0  0  0  0  0  0  0  0
   -3.3061    1.3492    0.0000 C   0  0  0  0  0  0  0  0  0  0  0  0
   -4.7497    0.9414    0.0000 C   0  0  0  0  0  0  0  0  0  0  0  0
   -4.9006    2.4338    0.0000 O   0  0  0  0  0  0  0  0  0  0  0  0
   -6.2456    1.0520    0.0000 C   0  0  0  0  0  0  0  0  0  0  0  0
   -7.0893   -0.1883    0.0000 O   0  0  0  0  0  0  0  0  0  0  0  0
   -6.8978    2.4028    0.0000 O   0  0  0  0  0  0  0  0  0  0  0  0
   -5.1183   -0.5126    0.0000 C   0  0  0  0  0  0  0  0  0  0  0  0
   -4.0434   -1.5588    0.0000 C   0  0  0  0  0  0  0  0  0  0  0  0
   -4.4120   -3.0128    0.0000 O   0  0  0  0  0  0  0  0  0  0  0  0
   -2.5999   -1.1511    0.0000 C   0  0  0  0  0  0  0  0  0  0  0  0
   -1.5250   -2.1973    0.0000 O   0  0  0  0  0  0  0  0  0  0  0  0
  1  2  2  0
  2  3  1  0
  3  4  2  0
  4  5  1  0
  5  6  2  0
  6  7  1  0
  7  8  2  0
  8  9  1  0
  8 10  1  0
 10 11  1  0
 10 12  2  0
  2 13  1  0
 14 13  1  1
 14 15  1  0
 15 16  1  0
 16 17  1  6
 16 18  1  0
 18 19  2  0
 18 20  1  0
 16 21  1  0
 21 22  1  0
 22 23  1  6
 22 24  1  0
 24 25  1  6
 12  5  1  0
 24 14  1  0
M  END
> <Identifier>
Drug_92

> <Carcinogen>
0

$$$$

     RDKit          2D

 29 33  0  0  0  0  0  0  0  0999 V2000
   -2.7224    0.8301    0.0000 C   0  0  0  0  0  0  0  0  0  0  0  0
   -1.6706   -0.2393    0.0000 C   0  0  0  0  0  0  0  0  0  0  0  0
   -1.1215    1.1566    0.0000 C   0  0  0  0  0  0  0  0  0  0  0  0
    0.3620    1.3789    0.0000 C   0  0  0  0  0  0  0  0  0  0  0  0
    1.2962    0.2054    0.0000 C   0  0  0  0  0  0  0  0  0  0  0  0
    0.7471   -1.1905    0.0000 C   0  0  0  0  0  0  0  0  0  0  0  0
    1.6813   -2.3640    0.0000 C   0  0  0  0  0  0  0  0  0  0  0  0
    3.1648   -2.1417    0.0000 C   0  0  0  0  0  0  0  0  0  0  0  0
    3.7139   -0.7458    0.0000 C   0  0  0  0  0  0  0  0  0  0  0  0
    4.6482   -1.9193    0.0000 O   0  0  0  0  0  0  0  0  0  0  0  0
    5.1974   -0.5235    0.0000 C   0  0  0  0  0  0  0  0  0  0  0  0
    5.7465    0.8724    0.0000 C   0  0  0  0  0  0  0  0  0  0  0  0
    7.2300    1.0947    0.0000 O   0  0  0  0  0  0  0  0  0  0  0  0
    4.8123    2.0459    0.0000 C   0  0  0  0  0  0  0  0  0  0  0  0
    3.3288    1.8236    0.0000 C   0  0  0  0  0  0  0  0  0  0  0  0
    2.7797    0.4277    0.0000 C   0  0  0  0  0  0  0  0  0  0  0  0
    1.8454    1.6012    0.0000 C   0  0  0  0  0  0  0  0  0  0  0  0
    2.3946    2.9971    0.0000 O   0  0  0  0  0  0  0  0  0  0  0  0
   -0.7364   -1.4128    0.0000 C   0  0  0  0  0  0  0  0  0  0  0  0
    0.0701   -2.6776    0.0000 O   0  0  0  0  0  0  0  0  0  0  0  0
   -1.5637   -2.6640    0.0000 C   0  0  0  0  0  0  0  0  0  0  0  0
   -3.0094   -2.2637    0.0000 C   0  0  0  0  0  0  0  0  0  0  0  0
   -3.0754   -0.7652    0.0000 C   0  0  0  0  0  0  0  0  0  0  0  0
   -4.3266    0.0622    0.0000 C   0  0  0  0  0  0  0  0  0  0  0  0
   -5.7314   -0.4637    0.0000 C   0  0  0  0  0  0  0  0  0  0  0  0
   -6.6656    0.7098    0.0000 C   0  0  0  0  0  0  0  0  0  0  0  0
   -8.1642    0.6437    0.0000 O   0  0  0  0  0  0  0  0  0  0  0  0
   -5.8383    1.9610    0.0000 O   0  0  0  0  0  0  0  0  0  0  0  0
   -4.3927    1.5607    0.0000 C   0  0  0  0  0  0  0  0  0  0  0  0
  2  1  1  6
  2  3  1  0
  3  4  1  0
  5  4  1  6
  5  6  1  0
  6  7  1  1
  7  8  1  0
  8  9  1  0
  9 10  1  6
  9 11  1  0
 11 12  1  0
 12 13  1  6
 12 14  1  0
 14 15  1  0
 15 16  1  0
 16 17  1  6
 17 18  2  0
  6 19  1  0
 19 20  1  6
 19 21  1  0
 21 22  1  0
 22 23  1  0
 23 24  1  6
 24 25  2  0
 25 26  1  0
 26 27  2  0
 26 28  1  0
 28 29  1  0
 19  2  1  0
 29 24  1  0
 23  2  1  0
 16  5  1  0
 16  9  1  0
M  END
> <Identifier>
Drug_93

> <Carcinogen>
0

$$$$

     RDKit          2D

 22 24  0  0  0  0  0  0  0  0999 V2000
    6.8291   -1.3995    0.0000 C   0  0  0  0  0  0  0  0  0  0  0  0
    5.9572   -0.1789    0.0000 O   0  0  0  0  0  0  0  0  0  0  0  0
    4.4642   -0.3237    0.0000 C   0  0  0  0  0  0  0  0  0  0  0  0
    3.8431   -1.6891    0.0000 C   0  0  0  0  0  0  0  0  0  0  0  0
    2.3501   -1.8338    0.0000 C   0  0  0  0  0  0  0  0  0  0  0  0
    1.4782   -0.6133    0.0000 C   0  0  0  0  0  0  0  0  0  0  0  0
   -0.0148   -0.7580    0.0000 C   0  0  0  0  0  0  0  0  0  0  0  0
   -0.6359   -2.1234    0.0000 O   0  0  0  0  0  0  0  0  0  0  0  0
   -0.8867    0.4626    0.0000 O   0  0  0  0  0  0  0  0  0  0  0  0
   -2.3797    0.3178    0.0000 C   0  0  0  0  0  0  0  0  0  0  0  0
   -3.0008   -1.0476    0.0000 C   0  0  0  0  0  0  0  0  0  0  0  0
   -4.4938   -1.1923    0.0000 C   0  0  0  0  0  0  0  0  0  0  0  0
   -5.9585   -0.8687    0.0000 C   0  0  0  0  0  0  0  0  0  0  0  0
   -6.1032    0.6243    0.0000 C   0  0  0  0  0  0  0  0  0  0  0  0
   -4.7280    1.2234    0.0000 C   0  0  0  0  0  0  0  0  0  0  0  0
   -3.2515    1.5384    0.0000 C   0  0  0  0  0  0  0  0  0  0  0  0
   -3.7334    0.1006    0.0000 N   0  0  0  0  0  0  0  0  0  0  0  0
   -2.9821    0.3673    0.0000 C   0  0  0  0  0  0  0  0  0  0  0  0
    2.0993    0.7521    0.0000 C   0  0  0  0  0  0  0  0  0  0  0  0
    3.5923    0.8969    0.0000 C   0  0  0  0  0  0  0  0  0  0  0  0
    4.2134    2.2622    0.0000 O   0  0  0  0  0  0  0  0  0  0  0  0
    3.3416    3.4828    0.0000 C   0  0  0  0  0  0  0  0  0  0  0  0
  1  2  1  0
  2  3  1  0
  3  4  2  0
  4  5  1  0
  5  6  2  0
  6  7  1  0
  7  8  2  0
  7  9  1  0
  9 10  1  0
 10 11  1  0
 12 11  1  1
 12 13  1  0
 13 14  1  0
 15 14  1  6
 15 16  1  0
 15 17  1  0
 17 18  1  0
  6 19  1  0
 19 20  2  0
 20 21  1  0
 21 22  1  0
 20  3  1  0
 16 10  1  0
 17 12  1  0
M  END
> <Identifier>
Drug_94

> <Carcinogen>
0

$$$$

     RDKit          2D

 22 24  0  0  0  0  0  0  0  0999 V2000
   -0.2140   -1.9855    0.0000 O   0  0  0  0  0  0  0  0  0  0  0  0
   -0.6517   -0.5508    0.0000 C   0  0  0  0  0  0  0  0  0  0  0  0
    0.7830   -0.1131    0.0000 C   0  0  0  0  0  0  0  0  0  0  0  0
    1.8794   -1.1368    0.0000 C   0  0  0  0  0  0  0  0  0  0  0  0
    3.3141   -0.6990    0.0000 N   0  0  0  0  0  0  0  0  0  0  0  0
    4.4106   -1.7227    0.0000 C   0  0  0  0  0  0  0  0  0  0  0  0
    5.8453   -1.2850    0.0000 C   0  0  0  0  0  0  0  0  0  0  0  0
    6.1836    0.1764    0.0000 C   0  0  0  0  0  0  0  0  0  0  0  0
    5.0871    1.2000    0.0000 C   0  0  0  0  0  0  0  0  0  0  0  0
    3.6524    0.7623    0.0000 C   0  0  0  0  0  0  0  0  0  0  0  0
   -2.0864   -0.9885    0.0000 C   0  0  0  0  0  0  0  0  0  0  0  0
   -3.1829    0.0351    0.0000 C   0  0  0  0  0  0  0  0  0  0  0  0
   -4.6176   -0.4026    0.0000 C   0  0  0  0  0  0  0  0  0  0  0  0
   -4.9559   -1.8640    0.0000 C   0  0  0  0  0  0  0  0  0  0  0  0
   -3.8594   -2.8876    0.0000 C   0  0  0  0  0  0  0  0  0  0  0  0
   -2.4247   -2.4499    0.0000 C   0  0  0  0  0  0  0  0  0  0  0  0
   -1.0894    0.8839    0.0000 C   0  0  0  0  0  0  0  0  0  0  0  0
   -0.0658    1.9803    0.0000 C   0  0  0  0  0  0  0  0  0  0  0  0
   -0.5035    3.4150    0.0000 C   0  0  0  0  0  0  0  0  0  0  0  0
   -1.9649    3.7533    0.0000 C   0  0  0  0  0  0  0  0  0  0  0  0
   -2.9885    2.6569    0.0000 C   0  0  0  0  0  0  0  0  0  0  0  0
   -2.5508    1.2222    0.0000 C   0  0  0  0  0  0  0  0  0  0  0  0
  1  2  1  0
  2  3  1  0
  3  4  1  0
  4  5  1  0
  5  6  1  0
  6  7  1  0
  7  8  1  0
  8  9  1  0
  9 10  1  0
  2 11  1  0
 11 12  2  0
 12 13  1  0
 13 14  2  0
 14 15  1  0
 15 16  2  0
  2 17  1  0
 17 18  2  0
 18 19  1  0
 19 20  2  0
 20 21  1  0
 21 22  2  0
 10  5  1  0
 16 11  1  0
 22 17  1  0
M  END
> <Identifier>
Drug_95

> <Carcinogen>
0

$$$$

     RDKit          2D

 14 16  0  0  0  0  0  0  0  0999 V2000
   -2.7295   -2.2346    0.0000 O   0  0  0  0  0  0  0  0  0  0  0  0
   -2.2423   -0.8160    0.0000 C   0  0  0  0  0  0  0  0  0  0  0  0
   -3.2274    0.3153    0.0000 C   0  0  0  0  0  0  0  0  0  0  0  0
   -2.7402    1.7340    0.0000 C   0  0  0  0  0  0  0  0  0  0  0  0
   -1.2680    2.0214    0.0000 C   0  0  0  0  0  0  0  0  0  0  0  0
   -0.2830    0.8902    0.0000 C   0  0  0  0  0  0  0  0  0  0  0  0
   -0.7701   -0.5285    0.0000 N   0  0  0  0  0  0  0  0  0  0  0  0
    0.2149   -1.6598    0.0000 C   0  0  0  0  0  0  0  0  0  0  0  0
    1.6871   -1.3723    0.0000 C   0  0  0  0  0  0  0  0  0  0  0  0
    3.1593   -1.0849    0.0000 C   0  0  0  0  0  0  0  0  0  0  0  0
    3.6465    0.3338    0.0000 N   0  0  0  0  0  0  0  0  0  0  0  0
    2.6614    1.4650    0.0000 C   0  0  0  0  0  0  0  0  0  0  0  0
    1.1892    1.1776    0.0000 C   0  0  0  0  0  0  0  0  0  0  0  0
    0.7021   -0.2411    0.0000 C   0  0  0  0  0  0  0  0  0  0  0  0
  1  2  2  0
  2  3  1  0
  3  4  2  0
  4  5  1  0
  5  6  2  0
  6  7  1  0
  7  8  1  0
  9  8  1  1
  9 10  1  0
 10 11  1  0
 11 12  1  0
 13 12  1  1
 13 14  1  0
  7  2  1  0
 14  9  1  0
 13  6  1  0
M  END
> <Identifier>
Drug_96

> <Carcinogen>
0

$$$$

     RDKit          2D

 21 25  0  0  0  0  0  0  0  0999 V2000
    3.9129   -1.7826    0.0000 C   0  0  0  0  0  0  0  0  0  0  0  0
    3.2789   -0.4232    0.0000 C   0  0  0  0  0  0  0  0  0  0  0  0
    4.1821    0.5801    0.0000 C   0  0  0  0  0  0  0  0  0  0  0  0
    1.7846   -0.2926    0.0000 C   0  0  0  0  0  0  0  0  0  0  0  0
    1.1505    1.0668    0.0000 C   0  0  0  0  0  0  0  0  0  0  0  0
    2.5164    0.3105    0.0000 C   0  0  0  0  0  0  0  0  0  0  0  0
    3.5802    1.1417    0.0000 O   0  0  0  0  0  0  0  0  0  0  0  0
    2.3858   -1.1838    0.0000 O   0  0  0  0  0  0  0  0  0  0  0  0
    0.9243   -1.5214    0.0000 C   0  0  0  0  0  0  0  0  0  0  0  0
   -0.5700   -1.3908    0.0000 C   0  0  0  0  0  0  0  0  0  0  0  0
   -1.8557   -2.1635    0.0000 O   0  0  0  0  0  0  0  0  0  0  0  0
   -2.9878   -1.1795    0.0000 C   0  0  0  0  0  0  0  0  0  0  0  0
   -4.4493   -1.5170    0.0000 O   0  0  0  0  0  0  0  0  0  0  0  0
   -2.6385    0.4070    0.0000 C   0  0  0  0  0  0  0  0  0  0  0  0
   -3.9505    1.1341    0.0000 O   0  0  0  0  0  0  0  0  0  0  0  0
   -2.6648    1.9068    0.0000 C   0  0  0  0  0  0  0  0  0  0  0  0
   -1.2466    2.3953    0.0000 C   0  0  0  0  0  0  0  0  0  0  0  0
   -0.3438    1.1974    0.0000 C   0  0  0  0  0  0  0  0  0  0  0  0
    0.3833    2.5094    0.0000 O   0  0  0  0  0  0  0  0  0  0  0  0
   -1.2040   -0.0314    0.0000 C   0  0  0  0  0  0  0  0  0  0  0  0
   -2.1880   -1.1635    0.0000 C   0  0  0  0  0  0  0  0  0  0  0  0
  1  2  2  0
  2  3  1  0
  4  2  1  1
  4  5  1  0
  5  6  1  0
  6  7  2  0
  6  8  1  0
  9  8  1  1
  9 10  1  0
 10 11  1  1
 11 12  1  0
 12 13  2  0
 12 14  1  0
 14 15  1  6
 15 16  1  0
 16 17  1  0
 17 18  1  0
 18 19  1  6
 18 20  1  0
 20 21  1  6
  9  4  1  0
 20 10  1  0
 18  5  1  0
 16 14  1  0
 20 14  1  0
M  END
> <Identifier>
Drug_97

> <Carcinogen>
0

$$$$

     RDKit          2D

 16 16  0  0  0  0  0  0  0  0999 V2000
   -5.7554    0.9747    0.0000 C   0  0  0  0  0  0  0  0  0  0  0  0
   -4.9153   -0.2679    0.0000 O   0  0  0  0  0  0  0  0  0  0  0  0
   -3.4190   -0.1616    0.0000 C   0  0  0  0  0  0  0  0  0  0  0  0
   -2.7630    1.1874    0.0000 C   0  0  0  0  0  0  0  0  0  0  0  0
   -1.2668    1.2937    0.0000 C   0  0  0  0  0  0  0  0  0  0  0  0
   -0.4266    0.0511    0.0000 C   0  0  0  0  0  0  0  0  0  0  0  0
    1.0697    0.1574    0.0000 C   0  0  0  0  0  0  0  0  0  0  0  0
    1.7257    1.5063    0.0000 O   0  0  0  0  0  0  0  0  0  0  0  0
    1.9098   -1.0852    0.0000 C   0  0  0  0  0  0  0  0  0  0  0  0
    1.2538   -2.4341    0.0000 Br  0  0  0  0  0  0  0  0  0  0  0  0
    3.4061   -0.9789    0.0000 C   0  0  0  0  0  0  0  0  0  0  0  0
    4.0621    0.3700    0.0000 C   0  0  0  0  0  0  0  0  0  0  0  0
    3.2219    1.6127    0.0000 O   0  0  0  0  0  0  0  0  0  0  0  0
    5.5583    0.4764    0.0000 O   0  0  0  0  0  0  0  0  0  0  0  0
   -1.0826   -1.2978    0.0000 C   0  0  0  0  0  0  0  0  0  0  0  0
   -2.5788   -1.4042    0.0000 C   0  0  0  0  0  0  0  0  0  0  0  0
  1  2  1  0
  2  3  1  0
  3  4  2  0
  4  5  1  0
  5  6  2  0
  6  7  1  0
  7  8  2  0
  7  9  1  0
  9 10  1  0
  9 11  2  0
 11 12  1  0
 12 13  2  0
 12 14  1  0
  6 15  1  0
 15 16  2  0
 16  3  1  0
M  END
> <Identifier>
Drug_98

> <Carcinogen>
0

$$$$

     RDKit          2D

 19 21  0  0  0  0  0  0  0  0999 V2000
    0.8111   -3.4924    0.0000 C   0  0  0  0  0  0  0  0  0  0  0  0
    1.4991   -2.1595    0.0000 C   0  0  0  0  0  0  0  0  0  0  0  0
    2.9819   -1.9327    0.0000 C   0  0  0  0  0  0  0  0  0  0  0  0
    3.2244   -0.4524    0.0000 C   0  0  0  0  0  0  0  0  0  0  0  0
    4.5644    0.2215    0.0000 O   0  0  0  0  0  0  0  0  0  0  0  0
    1.8915    0.2356    0.0000 C   0  0  0  0  0  0  0  0  0  0  0  0
    1.7314    1.7271    0.0000 C   0  0  0  0  0  0  0  0  0  0  0  0
    3.0056    2.5184    0.0000 C   0  0  0  0  0  0  0  0  0  0  0  0
    0.4655    2.5318    0.0000 C   0  0  0  0  0  0  0  0  0  0  0  0
   -0.9529    2.0438    0.0000 C   0  0  0  0  0  0  0  0  0  0  0  0
   -2.0080    3.1101    0.0000 O   0  0  0  0  0  0  0  0  0  0  0  0
   -1.4558    0.6306    0.0000 C   0  0  0  0  0  0  0  0  0  0  0  0
   -2.9122    0.2718    0.0000 C   0  0  0  0  0  0  0  0  0  0  0  0
   -4.0586    1.2392    0.0000 C   0  0  0  0  0  0  0  0  0  0  0  0
   -3.0210   -1.2242    0.0000 C   0  0  0  0  0  0  0  0  0  0  0  0
   -4.2953   -2.0156    0.0000 O   0  0  0  0  0  0  0  0  0  0  0  0
   -1.6318   -1.7900    0.0000 O   0  0  0  0  0  0  0  0  0  0  0  0
   -0.6644   -0.6436    0.0000 C   0  0  0  0  0  0  0  0  0  0  0  0
    0.8252   -0.8194    0.0000 C   0  0  0  0  0  0  0  0  0  0  0  0
  1  2  1  0
  2  3  2  0
  3  4  1  0
  4  5  2  0
  4  6  1  0
  6  7  2  0
  7  8  1  0
  7  9  1  0
  9 10  1  0
 10 11  1  1
 12 10  1  6
 12 13  1  0
 13 14  1  1
 13 15  1  0
 15 16  2  0
 15 17  1  0
 18 17  1  1
 18 19  1  0
 19  2  1  6
 19  6  1  0
 18 12  1  0
M  END
> <Identifier>
Drug_99

> <Carcinogen>
0

$$$$

     RDKit          2D

 34 40  0  0  0  0  0  0  0  0999 V2000
    3.4278   -4.2783    0.0000 C   0  0  0  0  0  0  0  0  0  0  0  0
    2.1699   -3.4611    0.0000 C   0  0  0  0  0  0  0  0  0  0  0  0
    2.2486   -1.9632    0.0000 N   0  0  0  0  0  0  0  0  0  0  0  0
    3.5852   -1.2824    0.0000 C   0  0  0  0  0  0  0  0  0  0  0  0
    3.6640    0.2155    0.0000 C   0  0  0  0  0  0  0  0  0  0  0  0
    5.0006    0.8963    0.0000 C   0  0  0  0  0  0  0  0  0  0  0  0
    6.2585    0.0792    0.0000 O   0  0  0  0  0  0  0  0  0  0  0  0
    7.5951    0.7600    0.0000 C   0  0  0  0  0  0  0  0  0  0  0  0
    3.7427    1.7135    0.0000 C   0  0  0  0  0  0  0  0  0  0  0  0
    2.4848    2.5306    0.0000 C   0  0  0  0  0  0  0  0  0  0  0  0
    1.1482    1.8498    0.0000 C   0  0  0  0  0  0  0  0  0  0  0  0
   -0.1097    2.6669    0.0000 O   0  0  0  0  0  0  0  0  0  0  0  0
   -0.0310    4.1649    0.0000 C   0  0  0  0  0  0  0  0  0  0  0  0
    1.0695    0.3519    0.0000 C   0  0  0  0  0  0  0  0  0  0  0  0
    0.9908   -1.1461    0.0000 C   0  0  0  0  0  0  0  0  0  0  0  0
   -0.3459   -1.8269    0.0000 C   0  0  0  0  0  0  0  0  0  0  0  0
   -0.7343   -3.2757    0.0000 O   0  0  0  0  0  0  0  0  0  0  0  0
   -2.2322   -3.3540    0.0000 C   0  0  0  0  0  0  0  0  0  0  0  0
   -2.7696   -1.9535    0.0000 O   0  0  0  0  0  0  0  0  0  0  0  0
   -1.6037   -1.0097    0.0000 C   0  0  0  0  0  0  0  0  0  0  0  0
   -2.9036   -0.9915    0.0000 C   0  0  0  0  0  0  0  0  0  0  0  0
   -3.5745   -0.5557    0.0000 C   0  0  0  0  0  0  0  0  0  0  0  0
   -5.5348   -1.5542    0.0000 O   0  0  0  0  0  0  0  0  0  0  0  0
   -6.7927   -0.7370    0.0000 C   0  0  0  0  0  0  0  0  0  0  0  0
   -4.1195    0.6246    0.0000 C   0  0  0  0  0  0  0  0  0  0  0  0
   -3.0384    1.6644    0.0000 C   0  0  0  0  0  0  0  0  0  0  0  0
   -0.1884    1.1690    0.0000 C   0  0  0  0  0  0  0  0  0  0  0  0
   -1.5250    0.4882    0.0000 C   0  0  0  0  0  0  0  0  0  0  0  0
   -2.8197    0.6063    0.0000 C   0  0  0  0  0  0  0  0  0  0  0  0
   -2.7042    2.8033    0.0000 O   0  0  0  0  0  0  0  0  0  0  0  0
   -3.9621    3.6204    0.0000 C   0  0  0  0  0  0  0  0  0  0  0  0
   -0.1396   -0.3411    0.0000 C   0  0  0  0  0  0  0  0  0  0  0  0
   -0.6626    0.4926    0.0000 O   0  0  0  0  0  0  0  0  0  0  0  0
    2.4061    1.0327    0.0000 C   0  0  0  0  0  0  0  0  0  0  0  0
  1  2  1  0
  2  3  1  0
  3  4  1  0
  4  5  1  0
  5  6  1  6
  6  7  1  0
  7  8  1  0
  5  9  1  0
  9 10  1  0
 10 11  1  0
 11 12  1  1
 12 13  1  0
 11 14  1  0
 14 15  1  1
 15 16  1  0
 16 17  1  6
 17 18  1  0
 18 19  1  0
 19 20  1  0
 20 21  1  1
 21 22  1  0
 22 23  1  6
 23 24  1  0
 22 25  1  0
 25 26  1  1
 27 26  1  1
 28 27  1  1
 28 29  1  0
 29 30  1  6
 30 31  1  0
 16 32  1  0
 32 33  1  1
 32 34  1  0
 15  3  1  0
 20 16  1  0
 29 25  1  0
 34  5  1  1
 27 14  1  0
 34 14  1  0
 28 20  1  0
M  END
> <Identifier>
Drug_100

> <Carcinogen>
0

$$$$

     RDKit          2D

 36 42  0  0  0  0  0  0  0  0999 V2000
    4.3446   -4.1500    0.0000 C   0  0  0  0  0  0  0  0  0  0  0  0
    3.0104   -3.4643    0.0000 C   0  0  0  0  0  0  0  0  0  0  0  0
    2.9372   -1.9661    0.0000 N   0  0  0  0  0  0  0  0  0  0  0  0
    4.1980   -1.1536    0.0000 C   0  0  0  0  0  0  0  0  0  0  0  0
    4.1248    0.3446    0.0000 C   0  0  0  0  0  0  0  0  0  0  0  0
    5.3857    1.1572    0.0000 C   0  0  0  0  0  0  0  0  0  0  0  0
    4.0515    1.8429    0.0000 C   0  0  0  0  0  0  0  0  0  0  0  0
    2.7174    2.5285    0.0000 C   0  0  0  0  0  0  0  0  0  0  0  0
    1.4566    1.7160    0.0000 C   0  0  0  0  0  0  0  0  0  0  0  0
    0.1225    2.4016    0.0000 O   0  0  0  0  0  0  0  0  0  0  0  0
    0.0492    3.8999    0.0000 C   0  0  0  0  0  0  0  0  0  0  0  0
    1.5298    0.2178    0.0000 C   0  0  0  0  0  0  0  0  0  0  0  0
    1.6031   -1.2804    0.0000 C   0  0  0  0  0  0  0  0  0  0  0  0
    0.3422   -2.0930    0.0000 C   0  0  0  0  0  0  0  0  0  0  0  0
    0.1024   -3.5737    0.0000 O   0  0  0  0  0  0  0  0  0  0  0  0
   -1.3800   -3.8031    0.0000 C   0  0  0  0  0  0  0  0  0  0  0  0
   -2.0563   -2.4643    0.0000 O   0  0  0  0  0  0  0  0  0  0  0  0
   -0.9919   -1.4073    0.0000 C   0  0  0  0  0  0  0  0  0  0  0  0
   -2.2869   -1.5207    0.0000 C   0  0  0  0  0  0  0  0  0  0  0  0
   -2.9985   -1.1550    0.0000 C   0  0  0  0  0  0  0  0  0  0  0  0
   -4.8477   -2.3467    0.0000 O   0  0  0  0  0  0  0  0  0  0  0  0
   -6.1819   -1.6611    0.0000 C   0  0  0  0  0  0  0  0  0  0  0  0
   -3.6601   -0.0360    0.0000 C   0  0  0  0  0  0  0  0  0  0  0  0
   -2.6898    1.1079    0.0000 C   0  0  0  0  0  0  0  0  0  0  0  0
    0.1957    0.9034    0.0000 C   0  0  0  0  0  0  0  0  0  0  0  0
    0.0600    1.6890    0.0000 O   0  0  0  0  0  0  0  0  0  0  0  0
   -1.0652    0.0909    0.0000 C   0  0  0  0  0  0  0  0  0  0  0  0
   -2.3993    0.7766    0.0000 C   0  0  0  0  0  0  0  0  0  0  0  0
   -2.4725    2.2748    0.0000 O   0  0  0  0  0  0  0  0  0  0  0  0
   -3.8066    2.9604    0.0000 C   0  0  0  0  0  0  0  0  0  0  0  0
    0.3970   -0.5940    0.0000 C   0  0  0  0  0  0  0  0  0  0  0  0
   -0.7835    0.3314    0.0000 O   0  0  0  0  0  0  0  0  0  0  0  0
   -0.5723    1.8165    0.0000 C   0  0  0  0  0  0  0  0  0  0  0  0
   -1.7528    2.7419    0.0000 C   0  0  0  0  0  0  0  0  0  0  0  0
    0.5264    2.8378    0.0000 O   0  0  0  0  0  0  0  0  0  0  0  0
    2.7907    1.0303    0.0000 C   0  0  0  0  0  0  0  0  0  0  0  0
  1  2  1  0
  2  3  1  0
  3  4  1  0
  4  5  1  0
  5  6  1  6
  5  7  1  0
  7  8  1  0
  8  9  1  0
  9 10  1  1
 10 11  1  0
  9 12  1  0
 12 13  1  1
 13 14  1  0
 14 15  1  6
 15 16  1  0
 16 17  1  0
 17 18  1  0
 18 19  1  1
 19 20  1  0
 20 21  1  6
 21 22  1  0
 20 23  1  0
 23 24  1  1
 24 25  1  0
 25 26  1  6
 25 27  1  0
 27 28  1  1
 28 29  1  6
 29 30  1  0
 14 31  1  0
 31 32  1  1
 32 33  1  0
 33 34  1  0
 33 35  2  0
 31 36  1  0
 13  3  1  0
 18 14  1  0
 28 23  1  0
 36  5  1  1
 25 12  1  0
 36 12  1  0
 27 18  1  0
M  END
> <Identifier>
Drug_101

> <Carcinogen>
0

$$$$

     RDKit          2D

 25 27  0  0  0  0  0  0  0  0999 V2000
   -4.9636   -3.2283    0.0000 C   0  0  0  0  0  0  0  0  0  0  0  0
   -3.5460   -2.7379    0.0000 O   0  0  0  0  0  0  0  0  0  0  0  0
   -3.2619   -1.2651    0.0000 C   0  0  0  0  0  0  0  0  0  0  0  0
   -4.3953   -0.2826    0.0000 C   0  0  0  0  0  0  0  0  0  0  0  0
   -5.8839   -0.4675    0.0000 C   0  0  0  0  0  0  0  0  0  0  0  0
   -6.5197    0.8911    0.0000 C   0  0  0  0  0  0  0  0  0  0  0  0
   -5.4242    1.9156    0.0000 O   0  0  0  0  0  0  0  0  0  0  0  0
   -4.1112    1.1903    0.0000 C   0  0  0  0  0  0  0  0  0  0  0  0
   -2.6936    1.6806    0.0000 N   0  0  0  0  0  0  0  0  0  0  0  0
   -1.5602    0.6982    0.0000 C   0  0  0  0  0  0  0  0  0  0  0  0
   -0.1426    1.1885    0.0000 C   0  0  0  0  0  0  0  0  0  0  0  0
    0.1415    2.6614    0.0000 O   0  0  0  0  0  0  0  0  0  0  0  0
    1.5591    3.1517    0.0000 C   0  0  0  0  0  0  0  0  0  0  0  0
    0.9909    0.2060    0.0000 C   0  0  0  0  0  0  0  0  0  0  0  0
    2.4085    0.6964    0.0000 O   0  0  0  0  0  0  0  0  0  0  0  0
    3.5419   -0.2861    0.0000 C   0  0  0  0  0  0  0  0  0  0  0  0
    4.9595    0.2043    0.0000 C   0  0  0  0  0  0  0  0  0  0  0  0
    5.2436    1.6771    0.0000 O   0  0  0  0  0  0  0  0  0  0  0  0
    6.0930   -0.7782    0.0000 C   0  0  0  0  0  0  0  0  0  0  0  0
    5.1105   -1.9117    0.0000 C   0  0  0  0  0  0  0  0  0  0  0  0
    7.0755    0.3553    0.0000 C   0  0  0  0  0  0  0  0  0  0  0  0
    7.2264   -1.7607    0.0000 O   0  0  0  0  0  0  0  0  0  0  0  0
    0.7068   -1.2668    0.0000 C   0  0  0  0  0  0  0  0  0  0  0  0
   -0.7108   -1.7572    0.0000 C   0  0  0  0  0  0  0  0  0  0  0  0
   -1.8443   -0.7747    0.0000 C   0  0  0  0  0  0  0  0  0  0  0  0
  1  2  1  0
  2  3  1  0
  3  4  2  0
  4  5  1  0
  5  6  2  0
  6  7  1  0
  7  8  1  0
  8  9  2  0
  9 10  1  0
 10 11  2  0
 11 12  1  0
 12 13  1  0
 11 14  1  0
 14 15  1  0
 15 16  1  0
 16 17  1  0
 17 18  1  1
 17 19  1  0
 19 20  1  0
 19 21  1  0
 19 22  1  0
 14 23  2  0
 23 24  1  0
 24 25  2  0
 25  3  1  0
  8  4  1  0
 25 10  1  0
M  END
> <Identifier>
Drug_102

> <Carcinogen>
0

$$$$

     RDKit          2D

 21 24  0  0  0  0  0  0  0  0999 V2000
    0.7490    2.4047    0.0000 C   0  0  0  0  0  0  0  0  0  0  0  0
    1.2317    0.9845    0.0000 N   0  0  0  0  0  0  0  0  0  0  0  0
    0.2431   -0.1437    0.0000 C   0  0  0  0  0  0  0  0  0  0  0  0
   -1.2282    0.1484    0.0000 C   0  0  0  0  0  0  0  0  0  0  0  0
   -1.7109    1.5686    0.0000 C   0  0  0  0  0  0  0  0  0  0  0  0
   -3.1822    1.8606    0.0000 C   0  0  0  0  0  0  0  0  0  0  0  0
   -4.1708    0.7325    0.0000 C   0  0  0  0  0  0  0  0  0  0  0  0
   -3.6881   -0.6877    0.0000 C   0  0  0  0  0  0  0  0  0  0  0  0
   -2.2168   -0.9798    0.0000 C   0  0  0  0  0  0  0  0  0  0  0  0
   -4.8896   -1.5857    0.0000 O   0  0  0  0  0  0  0  0  0  0  0  0
   -6.1149   -0.7205    0.0000 C   0  0  0  0  0  0  0  0  0  0  0  0
   -5.6706    0.7122    0.0000 O   0  0  0  0  0  0  0  0  0  0  0  0
    0.7258   -1.5639    0.0000 C   0  0  0  0  0  0  0  0  0  0  0  0
    2.1971   -1.8560    0.0000 C   0  0  0  0  0  0  0  0  0  0  0  0
    2.6798   -3.2762    0.0000 O   0  0  0  0  0  0  0  0  0  0  0  0
    3.1857   -0.7278    0.0000 C   0  0  0  0  0  0  0  0  0  0  0  0
    4.6570   -1.0199    0.0000 C   0  0  0  0  0  0  0  0  0  0  0  0
    5.6456    0.1083    0.0000 C   0  0  0  0  0  0  0  0  0  0  0  0
    5.1628    1.5285    0.0000 C   0  0  0  0  0  0  0  0  0  0  0  0
    3.6915    1.8206    0.0000 C   0  0  0  0  0  0  0  0  0  0  0  0
    2.7030    0.6924    0.0000 C   0  0  0  0  0  0  0  0  0  0  0  0
  1  2  1  0
  2  3  1  0
  3  4  1  0
  4  5  2  0
  5  6  1  0
  6  7  2  0
  7  8  1  0
  8  9  2  0
  8 10  1  0
 10 11  1  0
 11 12  1  0
  3 13  2  0
 13 14  1  0
 14 15  2  0
 14 16  1  0
 16 17  2  0
 17 18  1  0
 18 19  2  0
 19 20  1  0
 20 21  2  0
 21  2  1  0
  9  4  1  0
 21 16  1  0
 12  7  1  0
M  END
> <Identifier>
Drug_103

> <Carcinogen>
0

$$$$

     RDKit          2D

 14 14  0  0  0  0  0  0  0  0999 V2000
   -4.5630    0.2882    0.0000 C   0  0  0  0  0  0  0  0  0  0  0  0
   -3.4084   -0.6693    0.0000 C   0  0  0  0  0  0  0  0  0  0  0  0
   -2.0019   -0.1481    0.0000 N   0  0  0  0  0  0  0  0  0  0  0  0
   -1.7500    1.3306    0.0000 C   0  0  0  0  0  0  0  0  0  0  0  0
   -2.9046    2.2881    0.0000 C   0  0  0  0  0  0  0  0  0  0  0  0
   -0.8472   -1.1056    0.0000 C   0  0  0  0  0  0  0  0  0  0  0  0
   -1.0991   -2.5843    0.0000 O   0  0  0  0  0  0  0  0  0  0  0  0
    0.5593   -0.5844    0.0000 N   0  0  0  0  0  0  0  0  0  0  0  0
    0.8112    0.8943    0.0000 C   0  0  0  0  0  0  0  0  0  0  0  0
    2.2178    1.4155    0.0000 C   0  0  0  0  0  0  0  0  0  0  0  0
    3.3724    0.4581    0.0000 N   0  0  0  0  0  0  0  0  0  0  0  0
    4.7789    0.9793    0.0000 C   0  0  0  0  0  0  0  0  0  0  0  0
    3.1205   -1.0206    0.0000 C   0  0  0  0  0  0  0  0  0  0  0  0
    1.7140   -1.5419    0.0000 C   0  0  0  0  0  0  0  0  0  0  0  0
  1  2  1  0
  2  3  1  0
  3  4  1  0
  4  5  1  0
  3  6  1  0
  6  7  2  0
  6  8  1  0
  8  9  1  0
  9 10  1  0
 10 11  1  0
 11 12  1  0
 11 13  1  0
 13 14  1  0
 14  8  1  0
M  END
> <Identifier>
Drug_104

> <Carcinogen>
0

$$$$

     RDKit          2D

 27 31  0  0  0  0  0  0  0  0999 V2000
    1.9740   -1.6235    0.0000 C   0  0  0  0  0  0  0  0  0  0  0  0
    2.9561   -0.4896    0.0000 C   0  0  0  0  0  0  0  0  0  0  0  0
    3.4470   -1.9070    0.0000 C   0  0  0  0  0  0  0  0  0  0  0  0
    4.9199   -2.1906    0.0000 C   0  0  0  0  0  0  0  0  0  0  0  0
    5.9020   -1.0568    0.0000 C   0  0  0  0  0  0  0  0  0  0  0  0
    7.3750   -1.3404    0.0000 O   0  0  0  0  0  0  0  0  0  0  0  0
    5.4111    0.3606    0.0000 C   0  0  0  0  0  0  0  0  0  0  0  0
    3.9382    0.6442    0.0000 C   0  0  0  0  0  0  0  0  0  0  0  0
    3.4473    2.0616    0.0000 C   0  0  0  0  0  0  0  0  0  0  0  0
    1.9743    2.3452    0.0000 C   0  0  0  0  0  0  0  0  0  0  0  0
    0.9923    1.2113    0.0000 C   0  0  0  0  0  0  0  0  0  0  0  0
    1.4831   -0.2061    0.0000 C   0  0  0  0  0  0  0  0  0  0  0  0
    0.5011   -1.3399    0.0000 C   0  0  0  0  0  0  0  0  0  0  0  0
   -0.9719   -1.0563    0.0000 C   0  0  0  0  0  0  0  0  0  0  0  0
   -1.4628    0.3611    0.0000 C   0  0  0  0  0  0  0  0  0  0  0  0
   -2.5580   -0.6639    0.0000 C   0  0  0  0  0  0  0  0  0  0  0  0
   -2.8446    0.9447    0.0000 C   0  0  0  0  0  0  0  0  0  0  0  0
   -4.1289    0.1698    0.0000 C   0  0  0  0  0  0  0  0  0  0  0  0
   -4.2570   -1.3247    0.0000 C   0  0  0  0  0  0  0  0  0  0  0  0
   -5.7179   -1.6647    0.0000 C   0  0  0  0  0  0  0  0  0  0  0  0
   -6.3016   -3.0465    0.0000 O   0  0  0  0  0  0  0  0  0  0  0  0
   -6.4928   -0.3804    0.0000 O   0  0  0  0  0  0  0  0  0  0  0  0
   -5.5107    0.7535    0.0000 C   0  0  0  0  0  0  0  0  0  0  0  0
   -2.7165    2.4392    0.0000 C   0  0  0  0  0  0  0  0  0  0  0  0
   -1.2556    2.7793    0.0000 C   0  0  0  0  0  0  0  0  0  0  0  0
   -0.4807    1.4949    0.0000 C   0  0  0  0  0  0  0  0  0  0  0  0
    0.3775    2.7252    0.0000 O   0  0  0  0  0  0  0  0  0  0  0  0
  2  1  1  1
  2  3  1  0
  3  4  1  0
  4  5  1  0
  5  6  1  1
  5  7  1  0
  8  7  1  6
  8  9  1  0
  9 10  1  0
 11 10  1  6
 11 12  1  0
 12 13  1  1
 13 14  1  0
 14 15  1  0
 15 16  1  1
 15 17  1  0
 17 18  1  1
 18 19  2  0
 19 20  1  0
 20 21  2  0
 20 22  1  0
 22 23  1  0
 17 24  1  0
 24 25  1  0
 25 26  1  0
 26 27  1  1
  8  2  1  0
 26 11  1  0
 12  2  1  0
 26 15  1  0
 23 18  1  0
M  END
> <Identifier>
Drug_105

> <Carcinogen>
0

$$$$

     RDKit          2D

 43 50  0  0  0  0  0  0  0  0999 V2000
    3.4528    3.6398    0.0000 C   0  0  0  0  0  0  0  0  0  0  0  0
    3.6487    2.1526    0.0000 N   0  0  0  0  0  0  0  0  0  0  0  0
    2.4587    1.2394    0.0000 C   0  0  0  0  0  0  0  0  0  0  0  0
    2.6546   -0.2477    0.0000 C   0  0  0  0  0  0  0  0  0  0  0  0
    1.4646   -1.1609    0.0000 C   0  0  0  0  0  0  0  0  0  0  0  0
    1.6605   -2.6481    0.0000 O   0  0  0  0  0  0  0  0  0  0  0  0
    0.0787   -0.5870    0.0000 N   0  0  0  0  0  0  0  0  0  0  0  0
   -1.1112   -1.5002    0.0000 C   0  0  0  0  0  0  0  0  0  0  0  0
   -0.0787   -2.5882    0.0000 C   0  0  0  0  0  0  0  0  0  0  0  0
   -2.0854   -2.6409    0.0000 O   0  0  0  0  0  0  0  0  0  0  0  0
   -3.4712   -2.0669    0.0000 C   0  0  0  0  0  0  0  0  0  0  0  0
   -3.4319   -3.5664    0.0000 O   0  0  0  0  0  0  0  0  0  0  0  0
   -4.8250   -2.7128    0.0000 C   0  0  0  0  0  0  0  0  0  0  0  0
   -5.2510   -4.1510    0.0000 C   0  0  0  0  0  0  0  0  0  0  0  0
   -6.7505   -4.1904    0.0000 C   0  0  0  0  0  0  0  0  0  0  0  0
   -7.2513   -2.7764    0.0000 C   0  0  0  0  0  0  0  0  0  0  0  0
   -6.0613   -1.8632    0.0000 N   0  0  0  0  0  0  0  0  0  0  0  0
   -5.9437   -0.3678    0.0000 C   0  0  0  0  0  0  0  0  0  0  0  0
   -7.1799    0.4817    0.0000 O   0  0  0  0  0  0  0  0  0  0  0  0
   -4.5898    0.2780    0.0000 C   0  0  0  0  0  0  0  0  0  0  0  0
   -4.4722    1.7734    0.0000 C   0  0  0  0  0  0  0  0  0  0  0  0
   -5.7085    2.6229    0.0000 C   0  0  0  0  0  0  0  0  0  0  0  0
   -7.0623    1.9771    0.0000 C   0  0  0  0  0  0  0  0  0  0  0  0
   -8.2986    2.8266    0.0000 C   0  0  0  0  0  0  0  0  0  0  0  0
   -8.1810    4.3220    0.0000 C   0  0  0  0  0  0  0  0  0  0  0  0
   -6.8271    4.9678    0.0000 C   0  0  0  0  0  0  0  0  0  0  0  0
   -5.5909    4.1183    0.0000 C   0  0  0  0  0  0  0  0  0  0  0  0
   -3.3536   -0.5715    0.0000 N   0  0  0  0  0  0  0  0  0  0  0  0
   -1.8951   -0.2213    0.0000 C   0  0  0  0  0  0  0  0  0  0  0  0
   -1.3211    1.1646    0.0000 O   0  0  0  0  0  0  0  0  0  0  0  0
    4.0404   -0.8217    0.0000 C   0  0  0  0  0  0  0  0  0  0  0  0
    5.2304    0.0915    0.0000 C   0  0  0  0  0  0  0  0  0  0  0  0
    6.6162   -0.4824    0.0000 C   0  0  0  0  0  0  0  0  0  0  0  0
    6.8121   -1.9696    0.0000 C   0  0  0  0  0  0  0  0  0  0  0  0
    8.1980   -2.5435    0.0000 C   0  0  0  0  0  0  0  0  0  0  0  0
    9.3879   -1.6303    0.0000 C   0  0  0  0  0  0  0  0  0  0  0  0
    9.1921   -0.1431    0.0000 C   0  0  0  0  0  0  0  0  0  0  0  0
   10.0416    1.0931    0.0000 N   0  0  0  0  0  0  0  0  0  0  0  0
    9.1284    2.2831    0.0000 C   0  0  0  0  0  0  0  0  0  0  0  0
    7.6103    1.9180    0.0000 C   0  0  0  0  0  0  0  0  0  0  0  0
    7.8062    0.4308    0.0000 C   0  0  0  0  0  0  0  0  0  0  0  0
    6.2245    2.4919    0.0000 C   0  0  0  0  0  0  0  0  0  0  0  0
    5.0345    1.5787    0.0000 C   0  0  0  0  0  0  0  0  0  0  0  0
  1  2  1  0
  2  3  1  0
  3  4  1  0
  4  5  1  1
  5  6  2  0
  5  7  1  0
  7  8  1  0
  8  9  1  1
  8 10  1  0
 10 11  1  0
 11 12  1  6
 11 13  1  0
 13 14  1  6
 14 15  1  0
 15 16  1  0
 16 17  1  0
 17 18  1  0
 18 19  2  0
 18 20  1  0
 20 21  1  6
 21 22  1  0
 22 23  2  0
 23 24  1  0
 24 25  2  0
 25 26  1  0
 26 27  2  0
 20 28  1  0
 28 29  1  0
 29 30  2  0
  4 31  1  0
 31 32  1  0
 32 33  1  0
 33 34  2  0
 34 35  1  0
 35 36  2  0
 36 37  1  0
 37 38  1  0
 38 39  1  0
 39 40  2  0
 40 41  1  0
 40 42  1  0
 43 42  1  6
 43  2  1  0
 29  8  1  0
 43 32  1  0
 28 11  1  0
 41 33  1  0
 17 13  1  0
 27 22  1  0
 41 37  2  0
M  END
> <Identifier>
Drug_106

> <Carcinogen>
0

$$$$

     RDKit          2D

 40 42  0  0  0  0  0  0  0  0999 V2000
    2.0826   -3.4738    0.0000 C   0  0  0  0  0  0  0  0  0  0  0  0
    3.5788   -3.5812    0.0000 N   0  0  0  0  0  0  0  0  0  0  0  0
    4.4199   -2.3393    0.0000 C   0  0  0  0  0  0  0  0  0  0  0  0
    3.7649   -0.9898    0.0000 C   0  0  0  0  0  0  0  0  0  0  0  0
    2.2687   -0.8824    0.0000 O   0  0  0  0  0  0  0  0  0  0  0  0
    1.6137    0.4671    0.0000 C   0  0  0  0  0  0  0  0  0  0  0  0
    0.1370    0.7303    0.0000 C   0  0  0  0  0  0  0  0  0  0  0  0
   -0.9440   -0.3096    0.0000 O   0  0  0  0  0  0  0  0  0  0  0  0
   -2.3851    0.1066    0.0000 C   0  0  0  0  0  0  0  0  0  0  0  0
   -2.7452    1.5627    0.0000 C   0  0  0  0  0  0  0  0  0  0  0  0
   -1.6642    2.6026    0.0000 O   0  0  0  0  0  0  0  0  0  0  0  0
   -4.1863    1.9789    0.0000 C   0  0  0  0  0  0  0  0  0  0  0  0
   -4.5464    3.4350    0.0000 O   0  0  0  0  0  0  0  0  0  0  0  0
   -5.2673    0.9389    0.0000 C   0  0  0  0  0  0  0  0  0  0  0  0
   -6.7084    1.3551    0.0000 N   0  0  0  0  0  0  0  0  0  0  0  0
   -7.7894    0.3152    0.0000 C   0  0  0  0  0  0  0  0  0  0  0  0
   -7.4292   -1.1410    0.0000 N   0  0  0  0  0  0  0  0  0  0  0  0
   -9.2305    0.7314    0.0000 N   0  0  0  0  0  0  0  0  0  0  0  0
   -4.9071   -0.5172    0.0000 C   0  0  0  0  0  0  0  0  0  0  0  0
   -5.9881   -1.5571    0.0000 O   0  0  0  0  0  0  0  0  0  0  0  0
   -3.4660   -0.9334    0.0000 C   0  0  0  0  0  0  0  0  0  0  0  0
   -3.1059   -2.3895    0.0000 N   0  0  0  0  0  0  0  0  0  0  0  0
   -4.1869   -3.4295    0.0000 C   0  0  0  0  0  0  0  0  0  0  0  0
   -5.6280   -3.0133    0.0000 N   0  0  0  0  0  0  0  0  0  0  0  0
   -3.8268   -4.8856    0.0000 N   0  0  0  0  0  0  0  0  0  0  0  0
   -0.0689    2.2161    0.0000 O   0  0  0  0  0  0  0  0  0  0  0  0
    1.2805    2.8711    0.0000 C   0  0  0  0  0  0  0  0  0  0  0  0
    1.5438    4.3478    0.0000 C   0  0  0  0  0  0  0  0  0  0  0  0
    2.3205    1.7901    0.0000 C   0  0  0  0  0  0  0  0  0  0  0  0
    3.5624    0.9490    0.0000 O   0  0  0  0  0  0  0  0  0  0  0  0
    3.2868    2.9374    0.0000 C   0  0  0  0  0  0  0  0  0  0  0  0
    2.7765    4.3479    0.0000 O   0  0  0  0  0  0  0  0  0  0  0  0
    4.6060    0.2521    0.0000 O   0  0  0  0  0  0  0  0  0  0  0  0
    6.1022    0.1447    0.0000 C   0  0  0  0  0  0  0  0  0  0  0  0
    6.9433    1.3866    0.0000 C   0  0  0  0  0  0  0  0  0  0  0  0
    6.2883    2.7361    0.0000 O   0  0  0  0  0  0  0  0  0  0  0  0
    6.7572   -1.2048    0.0000 C   0  0  0  0  0  0  0  0  0  0  0  0
    8.2533   -1.3122    0.0000 O   0  0  0  0  0  0  0  0  0  0  0  0
    5.9160   -2.4467    0.0000 C   0  0  0  0  0  0  0  0  0  0  0  0
    6.5710   -3.7962    0.0000 O   0  0  0  0  0  0  0  0  0  0  0  0
  1  2  1  0
  3  2  1  6
  3  4  1  0
  4  5  1  6
  6  5  1  1
  6  7  1  0
  7  8  1  6
  9  8  1  1
  9 10  1  0
 10 11  1  6
 10 12  1  0
 12 13  1  1
 12 14  1  0
 14 15  1  6
 15 16  1  0
 16 17  2  0
 16 18  1  0
 14 19  1  0
 19 20  1  1
 19 21  1  0
 21 22  1  6
 22 23  1  0
 23 24  2  0
 23 25  1  0
  7 26  1  0
 26 27  1  0
 27 28  1  1
 27 29  1  0
 29 30  1  1
 29 31  1  0
 31 32  1  0
  4 33  1  0
 33 34  1  0
 34 35  1  1
 35 36  1  0
 34 37  1  0
 37 38  1  6
 37 39  1  0
 39 40  1  1
 39  3  1  0
 29  6  1  0
 21  9  1  0
M  END
> <Identifier>
Drug_107

> <Carcinogen>
0

$$$$

     RDKit          2D

 23 27  0  0  0  0  0  0  0  0999 V2000
   -0.2825   -2.9574    0.0000 C   0  0  0  0  0  0  0  0  0  0  0  0
    1.1660   -2.5679    0.0000 N   0  0  0  0  0  0  0  0  0  0  0  0
    2.3326   -3.5109    0.0000 C   0  0  0  0  0  0  0  0  0  0  0  0
    3.5899   -2.6929    0.0000 C   0  0  0  0  0  0  0  0  0  0  0  0
    3.2004   -1.2443    0.0000 C   0  0  0  0  0  0  0  0  0  0  0  0
    4.0163    0.0144    0.0000 C   0  0  0  0  0  0  0  0  0  0  0  0
    3.3342    1.3503    0.0000 C   0  0  0  0  0  0  0  0  0  0  0  0
    4.1500    2.6090    0.0000 O   0  0  0  0  0  0  0  0  0  0  0  0
    1.8361    1.4275    0.0000 C   0  0  0  0  0  0  0  0  0  0  0  0
    1.1540    2.7634    0.0000 O   0  0  0  0  0  0  0  0  0  0  0  0
   -0.3440    2.8407    0.0000 C   0  0  0  0  0  0  0  0  0  0  0  0
   -1.0261    4.1766    0.0000 O   0  0  0  0  0  0  0  0  0  0  0  0
   -1.1599    1.5820    0.0000 C   0  0  0  0  0  0  0  0  0  0  0  0
   -2.6579    1.6592    0.0000 C   0  0  0  0  0  0  0  0  0  0  0  0
   -3.4738    0.4005    0.0000 C   0  0  0  0  0  0  0  0  0  0  0  0
   -2.7916   -0.9354    0.0000 C   0  0  0  0  0  0  0  0  0  0  0  0
   -1.2936   -1.0127    0.0000 C   0  0  0  0  0  0  0  0  0  0  0  0
   -0.4777    0.2460    0.0000 C   0  0  0  0  0  0  0  0  0  0  0  0
    1.0203    0.1688    0.0000 C   0  0  0  0  0  0  0  0  0  0  0  0
    1.7024   -1.1671    0.0000 C   0  0  0  0  0  0  0  0  0  0  0  0
   -3.8514   -1.9970    0.0000 O   0  0  0  0  0  0  0  0  0  0  0  0
   -5.1885   -1.3172    0.0000 C   0  0  0  0  0  0  0  0  0  0  0  0
   -4.9551    0.1646    0.0000 O   0  0  0  0  0  0  0  0  0  0  0  0
  1  2  1  0
  2  3  1  0
  3  4  1  0
  4  5  1  0
  5  6  2  0
  6  7  1  0
  7  8  1  1
  7  9  1  0
  9 10  1  6
 10 11  1  0
 11 12  2  0
 11 13  1  0
 13 14  2  0
 14 15  1  0
 15 16  2  0
 16 17  1  0
 17 18  2  0
 19 18  1  6
 19 20  1  0
 16 21  1  0
 21 22  1  0
 22 23  1  0
 20  2  1  1
 20  5  1  0
 19  9  1  0
 18 13  1  0
 23 15  1  0
M  END
> <Identifier>
Drug_108

> <Carcinogen>
0

$$$$

     RDKit          2D

 43 45  0  0  0  0  0  0  0  0999 V2000
    9.8925   -3.2198    0.0000 C   0  0  0  0  0  0  0  0  0  0  0  0
   10.9983   -2.2063    0.0000 O   0  0  0  0  0  0  0  0  0  0  0  0
   10.6734   -0.7419    0.0000 C   0  0  0  0  0  0  0  0  0  0  0  0
    9.2427   -0.2911    0.0000 C   0  0  0  0  0  0  0  0  0  0  0  0
    8.9178    1.1733    0.0000 C   0  0  0  0  0  0  0  0  0  0  0  0
    7.4872    1.6242    0.0000 C   0  0  0  0  0  0  0  0  0  0  0  0
    7.1623    3.0885    0.0000 O   0  0  0  0  0  0  0  0  0  0  0  0
    6.3814    0.6106    0.0000 O   0  0  0  0  0  0  0  0  0  0  0  0
    4.9508    1.0614    0.0000 C   0  0  0  0  0  0  0  0  0  0  0  0
    3.8450    0.0478    0.0000 C   0  0  0  0  0  0  0  0  0  0  0  0
    2.4144    0.4987    0.0000 C   0  0  0  0  0  0  0  0  0  0  0  0
    1.3086   -0.5149    0.0000 N   0  0  0  0  0  0  0  0  0  0  0  0
    1.7420   -1.9509    0.0000 C   0  0  0  0  0  0  0  0  0  0  0  0
    0.8895   -3.1851    0.0000 C   0  0  0  0  0  0  0  0  0  0  0  0
   -0.6069   -3.2881    0.0000 C   0  0  0  0  0  0  0  0  0  0  0  0
   -1.6205   -2.1824    0.0000 N   0  0  0  0  0  0  0  0  0  0  0  0
   -3.0565   -2.6158    0.0000 C   0  0  0  0  0  0  0  0  0  0  0  0
   -4.1499   -1.5889    0.0000 C   0  0  0  0  0  0  0  0  0  0  0  0
   -5.5859   -2.0223    0.0000 C   0  0  0  0  0  0  0  0  0  0  0  0
   -6.6792   -0.9954    0.0000 O   0  0  0  0  0  0  0  0  0  0  0  0
   -8.1153   -1.4288    0.0000 C   0  0  0  0  0  0  0  0  0  0  0  0
   -8.4579   -2.8892    0.0000 O   0  0  0  0  0  0  0  0  0  0  0  0
   -9.2086   -0.4019    0.0000 C   0  0  0  0  0  0  0  0  0  0  0  0
   -8.8660    1.0584    0.0000 C   0  0  0  0  0  0  0  0  0  0  0  0
   -9.9593    2.0853    0.0000 C   0  0  0  0  0  0  0  0  0  0  0  0
   -9.6167    3.5457    0.0000 O   0  0  0  0  0  0  0  0  0  0  0  0
   -8.1807    3.9791    0.0000 C   0  0  0  0  0  0  0  0  0  0  0  0
  -11.3953    1.6519    0.0000 C   0  0  0  0  0  0  0  0  0  0  0  0
  -12.4887    2.6788    0.0000 O   0  0  0  0  0  0  0  0  0  0  0  0
  -13.9247    2.2454    0.0000 C   0  0  0  0  0  0  0  0  0  0  0  0
  -11.7380    0.1916    0.0000 C   0  0  0  0  0  0  0  0  0  0  0  0
  -13.1740   -0.2418    0.0000 O   0  0  0  0  0  0  0  0  0  0  0  0
  -13.5167   -1.7022    0.0000 C   0  0  0  0  0  0  0  0  0  0  0  0
  -10.6446   -0.8353    0.0000 C   0  0  0  0  0  0  0  0  0  0  0  0
   -1.3879   -0.7005    0.0000 C   0  0  0  0  0  0  0  0  0  0  0  0
   -0.0843    0.0416    0.0000 C   0  0  0  0  0  0  0  0  0  0  0  0
   10.0236    2.1869    0.0000 C   0  0  0  0  0  0  0  0  0  0  0  0
   11.4542    1.7361    0.0000 C   0  0  0  0  0  0  0  0  0  0  0  0
   12.5600    2.7496    0.0000 O   0  0  0  0  0  0  0  0  0  0  0  0
   13.9906    2.2988    0.0000 C   0  0  0  0  0  0  0  0  0  0  0  0
   11.7791    0.2717    0.0000 C   0  0  0  0  0  0  0  0  0  0  0  0
   13.2098   -0.1791    0.0000 O   0  0  0  0  0  0  0  0  0  0  0  0
   13.5347   -1.6435    0.0000 C   0  0  0  0  0  0  0  0  0  0  0  0
  1  2  1  0
  2  3  1  0
  3  4  2  0
  4  5  1  0
  5  6  1  0
  6  7  2  0
  6  8  1  0
  8  9  1  0
  9 10  1  0
 10 11  1  0
 11 12  1  0
 12 13  1  0
 13 14  1  0
 14 15  1  0
 15 16  1  0
 16 17  1  0
 17 18  1  0
 18 19  1  0
 19 20  1  0
 20 21  1  0
 21 22  2  0
 21 23  1  0
 23 24  2  0
 24 25  1  0
 25 26  1  0
 26 27  1  0
 25 28  2  0
 28 29  1  0
 29 30  1  0
 28 31  1  0
 31 32  1  0
 32 33  1  0
 31 34  2  0
 16 35  1  0
 35 36  1  0
  5 37  2  0
 37 38  1  0
 38 39  1  0
 39 40  1  0
 38 41  2  0
 41 42  1  0
 42 43  1  0
 41  3  1  0
 36 12  1  0
 34 23  1  0
M  END
> <Identifier>
Drug_109

> <Carcinogen>
0

$$$$

     RDKit          2D

 26 31  0  0  0  0  0  0  0  0999 V2000
    5.1575    1.6864    0.0000 C   0  0  0  0  0  0  0  0  0  0  0  0
    3.8189    1.0094    0.0000 C   0  0  0  0  0  0  0  0  0  0  0  0
    3.5798   -0.4714    0.0000 C   0  0  0  0  0  0  0  0  0  0  0  0
    2.7667    0.7891    0.0000 C   0  0  0  0  0  0  0  0  0  0  0  0
    1.2685    0.7151    0.0000 C   0  0  0  0  0  0  0  0  0  0  0  0
    2.4845    1.6945    0.0000 C   0  0  0  0  0  0  0  0  0  0  0  0
    2.2543    3.1767    0.0000 O   0  0  0  0  0  0  0  0  0  0  0  0
    0.2110    1.7790    0.0000 C   0  0  0  0  0  0  0  0  0  0  0  0
    0.2032    0.2790    0.0000 C   0  0  0  0  0  0  0  0  0  0  0  0
   -2.0659   -1.3206    0.0000 C   0  0  0  0  0  0  0  0  0  0  0  0
   -3.4647   -0.7789    0.0000 C   0  0  0  0  0  0  0  0  0  0  0  0
   -4.6332   -1.7193    0.0000 C   0  0  0  0  0  0  0  0  0  0  0  0
   -3.2345   -2.2611    0.0000 C   0  0  0  0  0  0  0  0  0  0  0  0
   -1.8358   -2.8029    0.0000 C   0  0  0  0  0  0  0  0  0  0  0  0
   -0.6672   -1.8624    0.0000 C   0  0  0  0  0  0  0  0  0  0  0  0
    0.7316   -2.4042    0.0000 O   0  0  0  0  0  0  0  0  0  0  0  0
   -0.8974   -0.3802    0.0000 C   0  0  0  0  0  0  0  0  0  0  0  0
   -1.1275    1.1020    0.0000 C   0  0  0  0  0  0  0  0  0  0  0  0
   -2.5263    1.6438    0.0000 N   0  0  0  0  0  0  0  0  0  0  0  0
   -2.7564    3.1261    0.0000 C   0  0  0  0  0  0  0  0  0  0  0  0
   -4.1552    3.6678    0.0000 C   0  0  0  0  0  0  0  0  0  0  0  0
   -3.6948    0.7034    0.0000 C   0  0  0  0  0  0  0  0  0  0  0  0
    0.5835   -0.6193    0.0000 C   0  0  0  0  0  0  0  0  0  0  0  0
    1.3966   -1.8798    0.0000 C   0  0  0  0  0  0  0  0  0  0  0  0
    2.8948   -1.8058    0.0000 C   0  0  0  0  0  0  0  0  0  0  0  0
    3.7079   -3.0663    0.0000 O   0  0  0  0  0  0  0  0  0  0  0  0
  1  2  2  0
  3  2  1  1
  3  4  1  0
  5  4  1  1
  5  6  1  0
  6  7  1  6
  5  8  1  0
  8  9  1  6
 10  9  1  6
 10 11  1  0
 11 12  1  6
 11 13  1  0
 13 14  1  0
 14 15  1  0
 15 16  1  1
 15 17  1  0
 17 18  1  1
 18 19  1  0
 19 20  1  0
 20 21  1  0
 19 22  1  0
 17 23  1  0
 23 24  1  1
 24 25  1  0
 25 26  1  1
  6  2  1  0
 18  8  1  0
 25  3  1  0
 23  5  1  0
 17 10  1  0
 22 11  1  0
M  END
> <Identifier>
Drug_110

> <Carcinogen>
0

$$$$

     RDKit          2D

 23 28  0  0  0  0  0  0  0  0999 V2000
   -5.9321   -1.3126    0.0000 C   0  0  0  0  0  0  0  0  0  0  0  0
   -6.0323    0.1840    0.0000 C   0  0  0  0  0  0  0  0  0  0  0  0
   -4.7862    1.0191    0.0000 C   0  0  0  0  0  0  0  0  0  0  0  0
   -3.4400    0.3575    0.0000 C   0  0  0  0  0  0  0  0  0  0  0  0
   -2.0475    0.9152    0.0000 C   0  0  0  0  0  0  0  0  0  0  0  0
   -1.0868   -0.2367    0.0000 C   0  0  0  0  0  0  0  0  0  0  0  0
   -1.8855   -1.5064    0.0000 N   0  0  0  0  0  0  0  0  0  0  0  0
   -3.3398   -1.1392    0.0000 C   0  0  0  0  0  0  0  0  0  0  0  0
   -4.5859   -1.9742    0.0000 C   0  0  0  0  0  0  0  0  0  0  0  0
    0.3912    0.0194    0.0000 C   0  0  0  0  0  0  0  0  0  0  0  0
    1.3519   -1.1326    0.0000 C   0  0  0  0  0  0  0  0  0  0  0  0
    1.6827   -0.3785    0.0000 C   0  0  0  0  0  0  0  0  0  0  0  0
    2.1504    0.8946    0.0000 C   0  0  0  0  0  0  0  0  0  0  0  0
    2.3864    1.6834    0.0000 C   0  0  0  0  0  0  0  0  0  0  0  0
    3.3472    0.5315    0.0000 C   0  0  0  0  0  0  0  0  0  0  0  0
    4.8252    0.7875    0.0000 C   0  0  0  0  0  0  0  0  0  0  0  0
    5.7859   -0.3644    0.0000 C   0  0  0  0  0  0  0  0  0  0  0  0
    5.2686   -1.7724    0.0000 C   0  0  0  0  0  0  0  0  0  0  0  0
    3.7907   -2.0285    0.0000 N   0  0  0  0  0  0  0  0  0  0  0  0
    2.8299   -0.8765    0.0000 C   0  0  0  0  0  0  0  0  0  0  0  0
    0.9084    1.4274    0.0000 N   0  0  0  0  0  0  0  0  0  0  0  0
   -0.0523    2.5793    0.0000 C   0  0  0  0  0  0  0  0  0  0  0  0
   -1.5303    2.3232    0.0000 C   0  0  0  0  0  0  0  0  0  0  0  0
  1  2  2  0
  2  3  1  0
  3  4  2  0
  4  5  1  0
  5  6  2  0
  6  7  1  0
  7  8  1  0
  8  9  2  0
 10  6  1  6
 10 11  1  0
 11 12  1  0
 12 13  1  0
 13 14  1  0
 14 15  1  0
 15 16  1  6
 16 17  1  0
 17 18  1  0
 18 19  1  0
 20 19  1  6
 14 21  1  0
 21 22  1  0
 22 23  1  0
  9  1  1  0
 21 10  1  0
  8  4  1  0
 20 11  1  0
 23  5  1  0
 20 15  1  0
M  END
> <Identifier>
Drug_111

> <Carcinogen>
0

$$$$

     RDKit          2D

 11 11  0  0  0  0  0  0  0  0999 V2000
    0.0000   -2.2456    0.0000 C   0  0  0  0  0  0  0  0  0  0  0  0
    0.0000   -0.7456    0.0000 N   0  0  0  0  0  0  0  0  0  0  0  0
   -1.2990    0.0044    0.0000 C   0  0  0  0  0  0  0  0  0  0  0  0
   -1.8121   -1.4052    0.0000 C   0  0  0  0  0  0  0  0  0  0  0  0
   -2.7762    0.2648    0.0000 C   0  0  0  0  0  0  0  0  0  0  0  0
   -1.2990    1.5044    0.0000 C   0  0  0  0  0  0  0  0  0  0  0  0
   -0.0000    2.2544    0.0000 C   0  0  0  0  0  0  0  0  0  0  0  0
    1.2990    1.5044    0.0000 C   0  0  0  0  0  0  0  0  0  0  0  0
    1.2990    0.0044    0.0000 C   0  0  0  0  0  0  0  0  0  0  0  0
    2.7762    0.2648    0.0000 C   0  0  0  0  0  0  0  0  0  0  0  0
    1.8121   -1.4052    0.0000 C   0  0  0  0  0  0  0  0  0  0  0  0
  1  2  1  0
  2  3  1  0
  3  4  1  0
  3  5  1  0
  3  6  1  0
  6  7  1  0
  7  8  1  0
  8  9  1  0
  9 10  1  0
  9 11  1  0
  9  2  1  0
M  END
> <Identifier>
Drug_112

> <Carcinogen>
0

$$$$

     RDKit          2D

 12 13  0  0  0  0  0  0  0  0999 V2000
   -3.0000   -1.2990    0.0000 C   0  0  0  0  0  0  0  0  0  0  0  0
   -3.7500    0.0000    0.0000 C   0  0  0  0  0  0  0  0  0  0  0  0
   -3.0000    1.2990    0.0000 N   0  0  0  0  0  0  0  0  0  0  0  0
   -1.5000    1.2990    0.0000 C   0  0  0  0  0  0  0  0  0  0  0  0
   -0.7500   -0.0000    0.0000 C   0  0  0  0  0  0  0  0  0  0  0  0
    0.7500    0.0000    0.0000 C   0  0  0  0  0  0  0  0  0  0  0  0
    1.5000   -1.2990    0.0000 C   0  0  0  0  0  0  0  0  0  0  0  0
    3.0000   -1.2990    0.0000 C   0  0  0  0  0  0  0  0  0  0  0  0
    3.7500    0.0000    0.0000 C   0  0  0  0  0  0  0  0  0  0  0  0
    3.0000    1.2990    0.0000 C   0  0  0  0  0  0  0  0  0  0  0  0
    1.5000    1.2990    0.0000 N   0  0  0  0  0  0  0  0  0  0  0  0
   -1.5000   -1.2990    0.0000 C   0  0  0  0  0  0  0  0  0  0  0  0
  1  2  2  0
  2  3  1  0
  3  4  2  0
  4  5  1  0
  6  5  1  6
  6  7  1  0
  7  8  1  0
  8  9  1  0
  9 10  1  0
 10 11  1  0
  5 12  2  0
 12  1  1  0
 11  6  1  0
M  END
> <Identifier>
Drug_113

> <Carcinogen>
0

$$$$

     RDKit          2D

 19 21  0  0  0  0  0  0  0  0999 V2000
    5.2721   -1.3258    0.0000 C   0  0  0  0  0  0  0  0  0  0  0  0
    4.3238   -0.1636    0.0000 O   0  0  0  0  0  0  0  0  0  0  0  0
    2.8431   -0.4037    0.0000 C   0  0  0  0  0  0  0  0  0  0  0  0
    2.3108   -1.8061    0.0000 C   0  0  0  0  0  0  0  0  0  0  0  0
    0.8301   -2.0462    0.0000 C   0  0  0  0  0  0  0  0  0  0  0  0
   -0.1182   -0.8840    0.0000 C   0  0  0  0  0  0  0  0  0  0  0  0
   -1.5988   -1.1242    0.0000 C   0  0  0  0  0  0  0  0  0  0  0  0
   -2.1312   -2.5265    0.0000 O   0  0  0  0  0  0  0  0  0  0  0  0
   -3.6118   -2.7667    0.0000 C   0  0  0  0  0  0  0  0  0  0  0  0
   -2.5471    0.0380    0.0000 C   0  0  0  0  0  0  0  0  0  0  0  0
   -4.0453    0.1110    0.0000 C   0  0  0  0  0  0  0  0  0  0  0  0
   -4.4389    1.5584    0.0000 C   0  0  0  0  0  0  0  0  0  0  0  0
   -3.1840    2.3800    0.0000 O   0  0  0  0  0  0  0  0  0  0  0  0
   -2.0148    1.4404    0.0000 C   0  0  0  0  0  0  0  0  0  0  0  0
   -0.5341    1.6805    0.0000 N   0  0  0  0  0  0  0  0  0  0  0  0
    0.4142    0.5183    0.0000 C   0  0  0  0  0  0  0  0  0  0  0  0
    1.8949    0.7585    0.0000 C   0  0  0  0  0  0  0  0  0  0  0  0
    2.4272    2.1608    0.0000 O   0  0  0  0  0  0  0  0  0  0  0  0
    3.9079    2.4010    0.0000 C   0  0  0  0  0  0  0  0  0  0  0  0
  1  2  1  0
  2  3  1  0
  3  4  2  0
  4  5  1  0
  5  6  2  0
  6  7  1  0
  7  8  1  0
  8  9  1  0
  7 10  2  0
 10 11  1  0
 11 12  2  0
 12 13  1  0
 13 14  1  0
 14 15  2  0
 15 16  1  0
 16 17  2  0
 17 18  1  0
 18 19  1  0
 17  3  1  0
 16  6  1  0
 14 10  1  0
M  END
> <Identifier>
Drug_114

> <Carcinogen>
0

$$$$

     RDKit          2D

 24 28  0  0  0  0  0  0  0  0999 V2000
    5.6672   -1.7514    0.0000 C   0  0  0  0  0  0  0  0  0  0  0  0
    4.1896   -2.0099    0.0000 O   0  0  0  0  0  0  0  0  0  0  0  0
    3.2270   -0.8595    0.0000 C   0  0  0  0  0  0  0  0  0  0  0  0
    3.7419    0.5494    0.0000 C   0  0  0  0  0  0  0  0  0  0  0  0
    2.7793    1.6997    0.0000 C   0  0  0  0  0  0  0  0  0  0  0  0
    2.9901    3.1848    0.0000 C   0  0  0  0  0  0  0  0  0  0  0  0
    1.6428    3.8442    0.0000 C   0  0  0  0  0  0  0  0  0  0  0  0
    0.5993    2.7666    0.0000 N   0  0  0  0  0  0  0  0  0  0  0  0
   -0.8858    2.9774    0.0000 C   0  0  0  0  0  0  0  0  0  0  0  0
    1.3018    1.4413    0.0000 C   0  0  0  0  0  0  0  0  0  0  0  0
    0.7868    0.0324    0.0000 C   0  0  0  0  0  0  0  0  0  0  0  0
   -0.6908   -0.2261    0.0000 C   0  0  0  0  0  0  0  0  0  0  0  0
   -1.6534    0.9243    0.0000 C   0  0  0  0  0  0  0  0  0  0  0  0
   -3.1309    0.6659    0.0000 C   0  0  0  0  0  0  0  0  0  0  0  0
   -3.6459   -0.7430    0.0000 C   0  0  0  0  0  0  0  0  0  0  0  0
   -2.6833   -1.8934    0.0000 C   0  0  0  0  0  0  0  0  0  0  0  0
   -1.2057   -1.6349    0.0000 C   0  0  0  0  0  0  0  0  0  0  0  0
   -0.2431   -2.7853    0.0000 C   0  0  0  0  0  0  0  0  0  0  0  0
   -0.7580   -4.1941    0.0000 O   0  0  0  0  0  0  0  0  0  0  0  0
    1.2345   -2.5268    0.0000 O   0  0  0  0  0  0  0  0  0  0  0  0
    1.7494   -1.1180    0.0000 C   0  0  0  0  0  0  0  0  0  0  0  0
   -5.1449   -0.6886    0.0000 O   0  0  0  0  0  0  0  0  0  0  0  0
   -5.5564    0.7538    0.0000 C   0  0  0  0  0  0  0  0  0  0  0  0
   -4.3117    1.5909    0.0000 O   0  0  0  0  0  0  0  0  0  0  0  0
  1  2  1  0
  3  2  1  6
  3  4  1  0
  4  5  2  0
  5  6  1  0
  6  7  1  0
  7  8  1  0
  8  9  1  0
 10  8  1  6
 10 11  1  0
 11 12  1  0
 12 13  2  0
 13 14  1  0
 14 15  2  0
 15 16  1  0
 16 17  2  0
 17 18  1  0
 18 19  2  0
 18 20  1  0
 21 20  1  1
 15 22  1  0
 22 23  1  0
 23 24  1  0
 21  3  1  0
 10  5  1  0
 21 11  1  0
 17 12  1  0
 24 14  1  0
M  END
> <Identifier>
Drug_115

> <Carcinogen>
0

$$$$

     RDKit          2D

 21 21  0  0  0  0  0  0  0  0999 V2000
   -5.4975    3.4519    0.0000 C   0  0  0  0  0  0  0  0  0  0  0  0
   -4.4524    2.3759    0.0000 N   0  0  0  0  0  0  0  0  0  0  0  0
   -4.8617    0.9328    0.0000 C   0  0  0  0  0  0  0  0  0  0  0  0
   -6.3161    0.5658    0.0000 C   0  0  0  0  0  0  0  0  0  0  0  0
   -6.7254   -0.8773    0.0000 N   0  0  0  0  0  4  0  0  0  0  0  0
   -5.6803   -1.9533    0.0000 O   0  0  0  0  0  0  0  0  0  0  0  0
   -8.1798   -1.2444    0.0000 O   0  0  0  0  0  1  0  0  0  0  0  0
   -3.8166   -0.1432    0.0000 N   0  0  0  0  0  0  0  0  0  0  0  0
   -2.3622    0.2239    0.0000 C   0  0  0  0  0  0  0  0  0  0  0  0
   -1.3172   -0.8521    0.0000 C   0  0  0  0  0  0  0  0  0  0  0  0
    0.1372   -0.4850    0.0000 S   0  0  0  0  0  0  0  0  0  0  0  0
    1.1823   -1.5611    0.0000 C   0  0  0  0  0  0  0  0  0  0  0  0
    2.6367   -1.1940    0.0000 C   0  0  0  0  0  0  0  0  0  0  0  0
    3.7886   -2.1549    0.0000 C   0  0  0  0  0  0  0  0  0  0  0  0
    5.0583   -1.3563    0.0000 S   0  0  0  0  0  0  0  0  0  0  0  0
    4.6913    0.0981    0.0000 C   0  0  0  0  0  0  0  0  0  0  0  0
    5.6521    1.2499    0.0000 C   0  0  0  0  0  0  0  0  0  0  0  0
    7.1301    0.9937    0.0000 N   0  0  0  0  0  0  0  0  0  0  0  0
    8.0910    2.1455    0.0000 C   0  0  0  0  0  0  0  0  0  0  0  0
    7.6472   -0.4144    0.0000 C   0  0  0  0  0  0  0  0  0  0  0  0
    3.1946    0.1984    0.0000 N   0  0  0  0  0  0  0  0  0  0  0  0
  1  2  1  0
  2  3  1  0
  3  4  2  0
  4  5  1  0
  5  6  2  0
  5  7  1  0
  3  8  1  0
  8  9  1  0
  9 10  1  0
 10 11  1  0
 11 12  1  0
 12 13  1  0
 13 14  2  0
 14 15  1  0
 15 16  1  0
 16 17  1  0
 17 18  1  0
 18 19  1  0
 18 20  1  0
 16 21  2  0
 21 13  1  0
M  CHG  2   5   1   7  -1
M  END
> <Identifier>
Drug_116

> <Carcinogen>
0

$$$$

     RDKit          2D

 11 11  0  0  0  0  0  0  0  0999 V2000
    0.5125   -2.4889    0.0000 C   0  0  0  0  0  0  0  0  0  0  0  0
    0.2137   -1.0189    0.0000 N   0  0  0  0  0  4  0  0  0  0  0  0
   -1.2170   -1.4698    0.0000 C   0  0  0  0  0  0  0  0  0  0  0  0
    1.7068   -0.8754    0.0000 C   0  0  0  0  0  0  0  0  0  0  0  0
    2.0317    0.5890    0.0000 C   0  0  0  0  0  0  0  0  0  0  0  0
    3.4074    1.1869    0.0000 O   0  0  0  0  0  0  0  0  0  0  0  0
    0.7394    1.3505    0.0000 C   0  0  0  0  0  0  0  0  0  0  0  0
   -0.3842    0.3568    0.0000 C   0  0  0  0  0  0  0  0  0  0  0  0
   -1.8486    0.6817    0.0000 C   0  0  0  0  0  0  0  0  0  0  0  0
   -2.8622   -0.4241    0.0000 O   0  0  0  0  0  0  0  0  0  0  0  0
   -2.2994    2.1123    0.0000 O   0  0  0  0  0  1  0  0  0  0  0  0
  1  2  1  0
  2  3  1  0
  2  4  1  0
  4  5  1  0
  5  6  1  6
  5  7  1  0
  7  8  1  0
  8  9  1  6
  9 10  2  0
  9 11  1  0
  8  2  1  0
M  CHG  2   2   1  11  -1
M  END
> <Identifier>
Drug_117

> <Carcinogen>
0

$$$$

     RDKit          2D

 11 12  0  0  0  0  0  0  0  0999 V2000
   -2.6936   -1.2990    0.0000 C   0  0  0  0  0  0  0  0  0  0  0  0
   -3.4436    0.0000    0.0000 C   0  0  0  0  0  0  0  0  0  0  0  0
   -2.6936    1.2990    0.0000 N   0  0  0  0  0  0  0  0  0  0  0  0
   -1.1936    1.2990    0.0000 C   0  0  0  0  0  0  0  0  0  0  0  0
   -0.4436   -0.0000    0.0000 C   0  0  0  0  0  0  0  0  0  0  0  0
    1.0564    0.0000    0.0000 C   0  0  0  0  0  0  0  0  0  0  0  0
    1.9381    1.2135    0.0000 N   0  0  0  0  0  0  0  0  0  0  0  0
    3.3646    0.7500    0.0000 C   0  0  0  0  0  0  0  0  0  0  0  0
    3.3646   -0.7500    0.0000 C   0  0  0  0  0  0  0  0  0  0  0  0
    1.9381   -1.2135    0.0000 C   0  0  0  0  0  0  0  0  0  0  0  0
   -1.1936   -1.2990    0.0000 C   0  0  0  0  0  0  0  0  0  0  0  0
  1  2  2  0
  2  3  1  0
  3  4  2  0
  4  5  1  0
  5  6  1  0
  6  7  2  0
  7  8  1  0
  8  9  1  0
  9 10  1  0
  5 11  2  0
 11  1  1  0
 10  6  1  0
M  END
> <Identifier>
Drug_118

> <Carcinogen>
0

$$$$

     RDKit          2D

 20 22  0  0  0  0  0  0  0  0999 V2000
   -7.0993   -0.1232    0.0000 C   0  0  0  0  0  0  0  0  0  0  0  0
   -5.8251   -0.9146    0.0000 N   0  0  0  0  0  0  0  0  0  0  0  0
   -4.5026   -0.2067    0.0000 C   0  0  0  0  0  0  0  0  0  0  0  0
   -4.4544    1.2925    0.0000 O   0  0  0  0  0  0  0  0  0  0  0  0
   -3.2284   -0.9981    0.0000 O   0  0  0  0  0  0  0  0  0  0  0  0
   -1.9059   -0.2902    0.0000 C   0  0  0  0  0  0  0  0  0  0  0  0
   -1.8577    1.2090    0.0000 C   0  0  0  0  0  0  0  0  0  0  0  0
   -0.5352    1.9168    0.0000 C   0  0  0  0  0  0  0  0  0  0  0  0
    0.7391    1.1255    0.0000 C   0  0  0  0  0  0  0  0  0  0  0  0
    0.6909   -0.3738    0.0000 C   0  0  0  0  0  0  0  0  0  0  0  0
   -0.6316   -1.0816    0.0000 C   0  0  0  0  0  0  0  0  0  0  0  0
    2.1018   -0.8829    0.0000 C   0  0  0  0  0  0  0  0  0  0  0  0
    1.1816   -2.0675    0.0000 C   0  0  0  0  0  0  0  0  0  0  0  0
    2.9440   -2.1241    0.0000 C   0  0  0  0  0  0  0  0  0  0  0  0
    4.3848   -1.7067    0.0000 C   0  0  0  0  0  0  0  0  0  0  0  0
    4.4330   -0.2075    0.0000 N   0  0  0  0  0  0  0  0  0  0  0  0
    5.6742    0.6347    0.0000 C   0  0  0  0  0  0  0  0  0  0  0  0
    3.0220    0.3017    0.0000 C   0  0  0  0  0  0  0  0  0  0  0  0
    2.1798    1.5429    0.0000 N   0  0  0  0  0  0  0  0  0  0  0  0
    2.6890    2.9538    0.0000 C   0  0  0  0  0  0  0  0  0  0  0  0
  1  2  1  0
  2  3  1  0
  3  4  2  0
  3  5  1  0
  5  6  1  0
  6  7  2  0
  7  8  1  0
  8  9  2  0
  9 10  1  0
 10 11  2  0
 10 12  1  0
 12 13  1  6
 12 14  1  0
 14 15  1  0
 15 16  1  0
 16 17  1  0
 18 16  1  1
 18 19  1  0
 19 20  1  0
 11  6  1  0
 18 12  1  0
 19  9  1  0
M  END
> <Identifier>
Drug_119

> <Carcinogen>
0

$$$$

     RDKit          2D

 20 20  0  0  0  0  0  0  0  0999 V2000
   -5.0156    2.2647    0.0000 N   0  0  0  0  0  0  0  0  0  0  0  0
   -4.1322    1.0525    0.0000 C   0  0  0  0  0  0  0  0  0  0  0  0
   -2.6407    1.2114    0.0000 C   0  0  0  0  0  0  0  0  0  0  0  0
   -1.7572   -0.0008    0.0000 C   0  0  0  0  0  0  0  0  0  0  0  0
   -0.2657    0.1581    0.0000 S   0  0  0  0  0  0  0  0  0  0  0  0
    0.6178   -1.0541    0.0000 C   0  0  0  0  0  0  0  0  0  0  0  0
    2.1093   -0.8952    0.0000 C   0  0  0  0  0  0  0  0  0  0  0  0
    3.1146   -2.0084    0.0000 C   0  0  0  0  0  0  0  0  0  0  0  0
    4.4841   -1.3963    0.0000 S   0  0  0  0  0  0  0  0  0  0  0  0
    4.3251    0.0952    0.0000 C   0  0  0  0  0  0  0  0  0  0  0  0
    5.4384    1.1005    0.0000 N   0  0  0  0  0  0  0  0  0  0  0  0
    6.8656    0.6391    0.0000 C   0  0  0  0  0  0  0  0  0  0  0  0
    7.9789    1.6444    0.0000 N   0  0  0  0  0  0  0  0  0  0  0  0
    7.1796   -0.8277    0.0000 N   0  0  0  0  0  0  0  0  0  0  0  0
    2.8574    0.4050    0.0000 N   0  0  0  0  0  0  0  0  0  0  0  0
   -4.7403   -0.3187    0.0000 N   0  0  0  0  0  0  0  0  0  0  0  0
   -6.2319   -0.4777    0.0000 S   0  0  0  0  0  0  0  0  0  0  0  0
   -7.7234   -0.6366    0.0000 N   0  0  0  0  0  0  0  0  0  0  0  0
   -6.3908    1.0139    0.0000 O   0  0  0  0  0  0  0  0  0  0  0  0
   -6.0729   -1.9692    0.0000 O   0  0  0  0  0  0  0  0  0  0  0  0
  1  2  2  0
  2  3  1  0
  3  4  1  0
  4  5  1  0
  5  6  1  0
  6  7  1  0
  7  8  2  0
  8  9  1  0
  9 10  1  0
 10 11  1  0
 11 12  2  0
 12 13  1  0
 12 14  1  0
 10 15  2  0
  2 16  1  0
 16 17  1  0
 17 18  1  0
 17 19  2  0
 17 20  2  0
 15  7  1  0
M  END
> <Identifier>
Drug_120

> <Carcinogen>
0

$$$$

     RDKit          2D

  8  8  0  0  0  0  0  0  0  0999 V2000
   -2.0314   -1.6317    0.0000 C   0  0  0  0  0  0  0  0  0  0  0  0
   -0.8178   -0.7500    0.0000 C   0  0  0  0  0  0  0  0  0  0  0  0
    0.6088   -1.2135    0.0000 N   0  0  0  0  0  0  0  0  0  0  0  0
    1.4904    0.0000    0.0000 C   0  0  0  0  0  0  0  0  0  0  0  0
    2.9904    0.0000    0.0000 O   0  0  0  0  0  0  0  0  0  0  0  0
    0.6088    1.2135    0.0000 N   0  0  0  0  0  0  0  0  0  0  0  0
   -0.8178    0.7500    0.0000 C   0  0  0  0  0  0  0  0  0  0  0  0
   -2.0314    1.6317    0.0000 O   0  0  0  0  0  0  0  0  0  0  0  0
  2  1  1  1
  2  3  1  0
  3  4  1  0
  4  5  2  0
  4  6  1  0
  6  7  1  0
  7  8  2  0
  7  2  1  0
M  END
> <Identifier>
Drug_121

> <Carcinogen>
0

$$$$

     RDKit          2D

 23 25  0  0  0  0  0  0  0  0999 V2000
   -0.1914   -3.8010    0.0000 O   0  0  0  0  0  0  0  0  0  0  0  0
    0.8180   -2.6915    0.0000 C   0  0  0  0  0  0  0  0  0  0  0  0
    2.3090   -2.8560    0.0000 O   0  0  0  0  0  0  0  0  0  0  0  0
    2.9261   -1.4888    0.0000 C   0  0  0  0  0  0  0  0  0  0  0  0
    4.3950   -1.1845    0.0000 C   0  0  0  0  0  0  0  0  0  0  0  0
    4.8659    0.2396    0.0000 N   0  0  0  0  0  0  0  0  0  0  0  0
    6.3347    0.5439    0.0000 C   0  0  0  0  0  0  0  0  0  0  0  0
    6.8056    1.9681    0.0000 C   0  0  0  0  0  0  0  0  0  0  0  0
    5.8076    3.0880    0.0000 O   0  0  0  0  0  0  0  0  0  0  0  0
    4.3388    2.7837    0.0000 C   0  0  0  0  0  0  0  0  0  0  0  0
    3.8679    1.3595    0.0000 C   0  0  0  0  0  0  0  0  0  0  0  0
    1.8166   -0.4794    0.0000 C   0  0  0  0  0  0  0  0  0  0  0  0
    0.5137   -1.2226    0.0000 N   0  0  0  0  0  0  0  0  0  0  0  0
   -0.8534   -0.6055    0.0000 N   0  0  0  0  0  0  0  0  0  0  0  0
   -2.0715   -1.4809    0.0000 C   0  0  0  0  0  0  0  0  0  0  0  0
   -3.4386   -0.8637    0.0000 C   0  0  0  0  0  0  0  0  0  0  0  0
   -4.7415   -1.6070    0.0000 C   0  0  0  0  0  0  0  0  0  0  0  0
   -5.8510   -0.5975    0.0000 C   0  0  0  0  0  0  0  0  0  0  0  0
   -5.2339    0.7696    0.0000 C   0  0  0  0  0  0  0  0  0  0  0  0
   -5.9771    2.0725    0.0000 N   0  0  0  0  0  4  0  0  0  0  0  0
   -7.4771    2.0803    0.0000 O   0  0  0  0  0  0  0  0  0  0  0  0
   -5.2204    3.3677    0.0000 O   0  0  0  0  0  1  0  0  0  0  0  0
   -3.7429    0.6051    0.0000 O   0  0  0  0  0  0  0  0  0  0  0  0
  1  2  2  0
  2  3  1  0
  3  4  1  0
  4  5  1  0
  5  6  1  0
  6  7  1  0
  7  8  1  0
  8  9  1  0
  9 10  1  0
 10 11  1  0
  4 12  1  0
 12 13  1  0
 13 14  1  0
 14 15  2  0
 15 16  1  0
 16 17  2  0
 17 18  1  0
 18 19  2  0
 19 20  1  0
 20 21  2  0
 20 22  1  0
 19 23  1  0
 13  2  1  0
 23 16  1  0
 11  6  1  0
M  CHG  2  20   1  22  -1
M  END
> <Identifier>
Drug_122

> <Carcinogen>
0

$$$$

     RDKit          2D

 32 35  0  0  0  0  0  0  0  0999 V2000
   -4.0102    3.8489    0.0000 C   0  0  0  0  0  0  0  0  0  0  0  0
   -2.7209    3.0822    0.0000 N   0  0  0  0  0  0  0  0  0  0  0  0
   -1.4123    3.8154    0.0000 C   0  0  0  0  0  0  0  0  0  0  0  0
   -2.7403    1.5823    0.0000 C   0  0  0  0  0  0  0  0  0  0  0  0
   -4.0489    0.8492    0.0000 C   0  0  0  0  0  0  0  0  0  0  0  0
   -5.3381    1.6159    0.0000 O   0  0  0  0  0  0  0  0  0  0  0  0
   -4.0682   -0.6507    0.0000 C   0  0  0  0  0  0  0  0  0  0  0  0
   -5.3768   -1.3839    0.0000 C   0  0  0  0  0  0  0  0  0  0  0  0
   -6.6661   -0.6172    0.0000 N   0  0  0  0  0  0  0  0  0  0  0  0
   -5.3962   -2.8838    0.0000 O   0  0  0  0  0  0  0  0  0  0  0  0
   -2.7790   -1.4174    0.0000 C   0  0  0  0  0  0  0  0  0  0  0  0
   -2.7983   -2.9173    0.0000 O   0  0  0  0  0  0  0  0  0  0  0  0
   -1.4704   -0.6842    0.0000 C   0  0  0  0  0  0  0  0  0  0  0  0
   -1.4897   -2.1841    0.0000 O   0  0  0  0  0  0  0  0  0  0  0  0
   -0.1811   -1.4509    0.0000 C   0  0  0  0  0  0  0  0  0  0  0  0
   -0.2005   -2.9508    0.0000 O   0  0  0  0  0  0  0  0  0  0  0  0
    1.1275   -0.7177    0.0000 C   0  0  0  0  0  0  0  0  0  0  0  0
    2.4168   -1.4844    0.0000 C   0  0  0  0  0  0  0  0  0  0  0  0
    2.3974   -2.9843    0.0000 O   0  0  0  0  0  0  0  0  0  0  0  0
    3.7254   -0.7512    0.0000 C   0  0  0  0  0  0  0  0  0  0  0  0
    5.0146   -1.5179    0.0000 C   0  0  0  0  0  0  0  0  0  0  0  0
    4.9953   -3.0178    0.0000 O   0  0  0  0  0  0  0  0  0  0  0  0
    6.3232   -0.7847    0.0000 C   0  0  0  0  0  0  0  0  0  0  0  0
    6.3426    0.7151    0.0000 C   0  0  0  0  0  0  0  0  0  0  0  0
    5.0533    1.4818    0.0000 C   0  0  0  0  0  0  0  0  0  0  0  0
    5.0726    2.9817    0.0000 Cl  0  0  0  0  0  0  0  0  0  0  0  0
    3.7447    0.7486    0.0000 C   0  0  0  0  0  0  0  0  0  0  0  0
    2.4554    1.5153    0.0000 C   0  0  0  0  0  0  0  0  0  0  0  0
    2.4748    3.0152    0.0000 O   0  0  0  0  0  0  0  0  0  0  0  0
    1.1468    0.7821    0.0000 C   0  0  0  0  0  0  0  0  0  0  0  0
   -0.1424    1.5488    0.0000 C   0  0  0  0  0  0  0  0  0  0  0  0
   -1.4510    0.8157    0.0000 C   0  0  0  0  0  0  0  0  0  0  0  0
  1  2  1  0
  2  3  1  0
  4  2  1  1
  4  5  1  0
  5  6  1  0
  5  7  2  0
  7  8  1  0
  8  9  1  0
  8 10  2  0
  7 11  1  0
 11 12  2  0
 11 13  1  0
 13 14  1  1
 13 15  1  0
 15 16  1  0
 15 17  2  0
 17 18  1  0
 18 19  2  0
 18 20  1  0
 20 21  2  0
 21 22  1  0
 21 23  1  0
 23 24  2  0
 24 25  1  0
 25 26  1  0
 25 27  2  0
 27 28  1  0
 28 29  1  6
 28 30  1  0
 30 31  1  6
 32 31  1  6
 32  4  1  0
 32 13  1  0
 30 17  1  0
 27 20  1  0
M  END
> <Identifier>
Drug_123

> <Carcinogen>
0

$$$$

     RDKit          2D

 20 21  0  0  0  0  0  0  0  0999 V2000
   -5.7161   -2.8365    0.0000 C   0  0  0  0  0  0  0  0  0  0  0  0
   -4.6981   -1.7348    0.0000 N   0  0  0  0  0  0  0  0  0  0  0  0
   -5.1432   -0.3024    0.0000 C   0  0  0  0  0  0  0  0  0  0  0  0
   -3.2350   -2.0655    0.0000 C   0  0  0  0  0  0  0  0  0  0  0  0
   -2.2171   -0.9638    0.0000 C   0  0  0  0  0  0  0  0  0  0  0  0
   -0.7540   -1.2946    0.0000 O   0  0  0  0  0  0  0  0  0  0  0  0
    0.2640   -0.1929    0.0000 C   0  0  0  0  0  0  0  0  0  0  0  0
    1.7271   -0.5236    0.0000 C   0  0  0  0  0  0  0  0  0  0  0  0
    2.1722   -1.9560    0.0000 C   0  0  0  0  0  0  0  0  0  0  0  0
    3.6353   -2.2867    0.0000 C   0  0  0  0  0  0  0  0  0  0  0  0
    4.6532   -1.1850    0.0000 C   0  0  0  0  0  0  0  0  0  0  0  0
    6.1163   -1.5158    0.0000 Cl  0  0  0  0  0  0  0  0  0  0  0  0
    4.2081    0.2474    0.0000 C   0  0  0  0  0  0  0  0  0  0  0  0
    2.7450    0.5781    0.0000 C   0  0  0  0  0  0  0  0  0  0  0  0
   -0.1812    1.2396    0.0000 C   0  0  0  0  0  0  0  0  0  0  0  0
    0.8368    2.3413    0.0000 C   0  0  0  0  0  0  0  0  0  0  0  0
    0.3917    3.7737    0.0000 C   0  0  0  0  0  0  0  0  0  0  0  0
   -1.0714    4.1044    0.0000 C   0  0  0  0  0  0  0  0  0  0  0  0
   -2.0894    3.0027    0.0000 C   0  0  0  0  0  0  0  0  0  0  0  0
   -1.6442    1.5703    0.0000 N   0  0  0  0  0  0  0  0  0  0  0  0
  1  2  1  0
  2  3  1  0
  2  4  1  0
  4  5  1  0
  5  6  1  0
  6  7  1  0
  7  8  1  0
  8  9  2  0
  9 10  1  0
 10 11  2  0
 11 12  1  0
 11 13  1  0
 13 14  2  0
  7 15  1  0
 15 16  2  0
 16 17  1  0
 17 18  2  0
 18 19  1  0
 19 20  2  0
 14  8  1  0
 20 15  1  0
M  END
> <Identifier>
Drug_124

> <Carcinogen>
0

$$$$

     RDKit          2D

 33 35  0  0  0  0  0  0  0  0999 V2000
   -4.8294   -4.5016    0.0000 C   0  0  0  0  0  0  0  0  0  0  0  0
   -4.6547   -3.0118    0.0000 N   0  0  0  0  0  0  0  0  0  0  0  0
   -5.8576   -2.1156    0.0000 C   0  0  0  0  0  0  0  0  0  0  0  0
   -7.2351   -2.7093    0.0000 C   0  0  0  0  0  0  0  0  0  0  0  0
   -5.6829   -0.6258    0.0000 C   0  0  0  0  0  0  0  0  0  0  0  0
   -6.8858    0.2703    0.0000 C   0  0  0  0  0  0  0  0  0  0  0  0
   -6.7111    1.7601    0.0000 C   0  0  0  0  0  0  0  0  0  0  0  0
   -5.3336    2.3538    0.0000 C   0  0  0  0  0  0  0  0  0  0  0  0
   -5.1589    3.8435    0.0000 N   0  0  0  0  0  0  0  0  0  0  0  0
   -4.1307    1.4576    0.0000 C   0  0  0  0  0  0  0  0  0  0  0  0
   -2.7532    2.0512    0.0000 O   0  0  0  0  0  0  0  0  0  0  0  0
   -1.5503    1.1550    0.0000 C   0  0  0  0  0  0  0  0  0  0  0  0
   -1.7250   -0.3348    0.0000 C   0  0  0  0  0  0  0  0  0  0  0  0
   -3.1025   -0.9284    0.0000 N   0  0  0  0  0  0  0  0  0  0  0  0
   -0.5221   -1.2309    0.0000 C   0  0  0  0  0  0  0  0  0  0  0  0
    0.8554   -0.6373    0.0000 C   0  0  0  0  0  0  0  0  0  0  0  0
    2.0583   -1.5335    0.0000 N   0  0  0  0  0  0  0  0  0  0  0  0
    1.0301    0.8525    0.0000 C   0  0  0  0  0  0  0  0  0  0  0  0
    2.4076    1.4461    0.0000 O   0  0  0  0  0  0  0  0  0  0  0  0
    3.6105    0.5499    0.0000 C   0  0  0  0  0  0  0  0  0  0  0  0
    3.4358   -0.9399    0.0000 O   0  0  0  0  0  0  0  0  0  0  0  0
    4.6387   -1.8360    0.0000 C   0  0  0  0  0  0  0  0  0  0  0  0
    6.0162   -1.2424    0.0000 C   0  0  0  0  0  0  0  0  0  0  0  0
    7.5137   -1.1557    0.0000 C   0  0  0  0  0  0  0  0  0  0  0  0
    6.3616   -2.7021    0.0000 O   0  0  0  0  0  0  0  0  0  0  0  0
    6.1909    0.2474    0.0000 C   0  0  0  0  0  0  0  0  0  0  0  0
    7.5684    0.8410    0.0000 N   0  0  0  0  0  0  0  0  0  0  0  0
    8.7713   -0.0552    0.0000 C   0  0  0  0  0  0  0  0  0  0  0  0
    4.9880    1.1436    0.0000 C   0  0  0  0  0  0  0  0  0  0  0  0
    5.1627    2.6333    0.0000 O   0  0  0  0  0  0  0  0  0  0  0  0
   -0.1728    1.7487    0.0000 C   0  0  0  0  0  0  0  0  0  0  0  0
    0.0019    3.2384    0.0000 O   0  0  0  0  0  0  0  0  0  0  0  0
   -4.3054   -0.0322    0.0000 O   0  0  0  0  0  0  0  0  0  0  0  0
  1  2  1  0
  2  3  1  0
  3  4  1  6
  3  5  1  0
  5  6  1  6
  6  7  1  0
  7  8  1  0
  8  9  1  1
  8 10  1  0
 10 11  1  1
 12 11  1  1
 12 13  1  0
 13 14  1  6
 13 15  1  0
 15 16  1  0
 16 17  1  6
 16 18  1  0
 18 19  1  1
 20 19  1  6
 20 21  1  0
 21 22  1  0
 22 23  1  0
 23 24  1  6
 23 25  1  0
 23 26  1  0
 26 27  1  1
 27 28  1  0
 26 29  1  0
 29 30  1  6
 18 31  1  0
 31 32  1  6
 10 33  1  0
 33  5  1  0
 31 12  1  0
 29 20  1  0
M  END
> <Identifier>
Drug_125

> <Carcinogen>
0

$$$$

     RDKit          2D

 13 14  0  0  0  0  0  0  0  0999 V2000
   -4.3799    1.3423    0.0000 C   0  0  0  0  0  0  0  0  0  0  0  0
   -3.2273    0.3823    0.0000 N   0  0  0  0  0  0  0  0  0  0  0  0
   -3.4823   -1.0958    0.0000 C   0  0  0  0  0  0  0  0  0  0  0  0
   -1.8196    0.9005    0.0000 C   0  0  0  0  0  0  0  0  0  0  0  0
   -0.6670   -0.0595    0.0000 C   0  0  0  0  0  0  0  0  0  0  0  0
   -0.7662   -1.5562    0.0000 C   0  0  0  0  0  0  0  0  0  0  0  0
    0.6266   -2.1130    0.0000 N   0  0  0  0  0  0  0  0  0  0  0  0
    1.5866   -0.9604    0.0000 C   0  0  0  0  0  0  0  0  0  0  0  0
    3.0855   -0.9026    0.0000 C   0  0  0  0  0  0  0  0  0  0  0  0
    3.7848    0.4244    0.0000 C   0  0  0  0  0  0  0  0  0  0  0  0
    2.9853    1.6935    0.0000 C   0  0  0  0  0  0  0  0  0  0  0  0
    1.4864    1.6357    0.0000 C   0  0  0  0  0  0  0  0  0  0  0  0
    0.7871    0.3087    0.0000 C   0  0  0  0  0  0  0  0  0  0  0  0
  1  2  1  0
  2  3  1  0
  2  4  1  0
  4  5  1  0
  5  6  2  0
  6  7  1  0
  7  8  1  0
  8  9  2  0
  9 10  1  0
 10 11  2  0
 11 12  1  0
 12 13  2  0
 13  5  1  0
 13  8  1  0
M  END
> <Identifier>
Drug_126

> <Carcinogen>
0

$$$$

     RDKit          2D

 16 18  0  0  0  0  0  0  0  0999 V2000
   -5.6958    0.2642    0.0000 C   0  0  0  0  0  0  0  0  0  0  0  0
   -4.5911   -0.7505    0.0000 O   0  0  0  0  0  0  0  0  0  0  0  0
   -3.1600   -0.3011    0.0000 C   0  0  0  0  0  0  0  0  0  0  0  0
   -2.8336    1.1630    0.0000 C   0  0  0  0  0  0  0  0  0  0  0  0
   -1.4025    1.6124    0.0000 C   0  0  0  0  0  0  0  0  0  0  0  0
   -0.2978    0.5977    0.0000 C   0  0  0  0  0  0  0  0  0  0  0  0
    1.1955    0.7398    0.0000 C   0  0  0  0  0  0  0  0  0  0  0  0
    1.7920   -0.6365    0.0000 C   0  0  0  0  0  0  0  0  0  0  0  0
    0.6675   -1.6291    0.0000 N   0  0  0  0  0  0  0  0  0  0  0  0
   -0.6241   -0.8663    0.0000 C   0  0  0  0  0  0  0  0  0  0  0  0
   -2.0552   -1.3157    0.0000 C   0  0  0  0  0  0  0  0  0  0  0  0
    3.2822   -0.8080    0.0000 C   0  0  0  0  0  0  0  0  0  0  0  0
    3.8787   -2.1843    0.0000 C   0  0  0  0  0  0  0  0  0  0  0  0
    4.1758    0.3968    0.0000 N   0  0  0  0  0  0  0  0  0  0  0  0
    3.5793    1.7730    0.0000 C   0  0  0  0  0  0  0  0  0  0  0  0
    2.0891    1.9446    0.0000 C   0  0  0  0  0  0  0  0  0  0  0  0
  1  2  1  0
  2  3  1  0
  3  4  2  0
  4  5  1  0
  5  6  2  0
  6  7  1  0
  7  8  2  0
  8  9  1  0
  9 10  1  0
 10 11  2  0
  8 12  1  0
 12 13  1  0
 12 14  2  0
 14 15  1  0
 15 16  1  0
 11  3  1  0
 10  6  1  0
 16  7  1  0
M  END
> <Identifier>
Drug_127

> <Carcinogen>
0

$$$$

     RDKit          2D

 15 17  0  0  0  0  0  0  0  0999 V2000
   -3.4578   -2.2319    0.0000 C   0  0  0  0  0  0  0  0  0  0  0  0
   -2.8871   -0.8447    0.0000 C   0  0  0  0  0  0  0  0  0  0  0  0
   -3.8032    0.3431    0.0000 N   0  0  0  0  0  0  0  0  0  0  0  0
   -3.2326    1.7304    0.0000 C   0  0  0  0  0  0  0  0  0  0  0  0
   -1.7459    1.9298    0.0000 C   0  0  0  0  0  0  0  0  0  0  0  0
   -0.8298    0.7420    0.0000 C   0  0  0  0  0  0  0  0  0  0  0  0
   -1.4005   -0.6452    0.0000 C   0  0  0  0  0  0  0  0  0  0  0  0
   -0.2575   -1.6166    0.0000 N   0  0  0  0  0  0  0  0  0  0  0  0
    1.0196   -0.8297    0.0000 C   0  0  0  0  0  0  0  0  0  0  0  0
    2.4588   -1.2522    0.0000 C   0  0  0  0  0  0  0  0  0  0  0  0
    3.5444   -0.2171    0.0000 C   0  0  0  0  0  0  0  0  0  0  0  0
    4.9836   -0.6396    0.0000 O   0  0  0  0  0  0  0  0  0  0  0  0
    3.1906    1.2406    0.0000 C   0  0  0  0  0  0  0  0  0  0  0  0
    1.7514    1.6631    0.0000 C   0  0  0  0  0  0  0  0  0  0  0  0
    0.6658    0.6280    0.0000 C   0  0  0  0  0  0  0  0  0  0  0  0
  1  2  1  0
  2  3  2  0
  3  4  1  0
  4  5  1  0
  5  6  1  0
  6  7  2  0
  7  8  1  0
  8  9  1  0
  9 10  2  0
 10 11  1  0
 11 12  1  0
 11 13  2  0
 13 14  1  0
 14 15  2  0
  7  2  1  0
 15  9  1  0
 15  6  1  0
M  END
> <Identifier>
Drug_128

> <Carcinogen>
0

$$$$

     RDKit          2D

 14 16  0  0  0  0  0  0  0  0999 V2000
   -3.2269   -2.0965    0.0000 C   0  0  0  0  0  0  0  0  0  0  0  0
   -2.5779   -0.7442    0.0000 C   0  0  0  0  0  0  0  0  0  0  0  0
   -3.4246    0.4940    0.0000 N   0  0  0  0  0  0  0  0  0  0  0  0
   -2.7756    1.8464    0.0000 C   0  0  0  0  0  0  0  0  0  0  0  0
   -1.2799    1.9605    0.0000 C   0  0  0  0  0  0  0  0  0  0  0  0
   -0.4333    0.7223    0.0000 C   0  0  0  0  0  0  0  0  0  0  0  0
   -1.0823   -0.6301    0.0000 C   0  0  0  0  0  0  0  0  0  0  0  0
    0.0033   -1.6652    0.0000 N   0  0  0  0  0  0  0  0  0  0  0  0
    1.3233   -0.9526    0.0000 C   0  0  0  0  0  0  0  0  0  0  0  0
    2.7360   -1.4567    0.0000 C   0  0  0  0  0  0  0  0  0  0  0  0
    3.8789   -0.4853    0.0000 C   0  0  0  0  0  0  0  0  0  0  0  0
    3.6091    0.9903    0.0000 C   0  0  0  0  0  0  0  0  0  0  0  0
    2.1964    1.4944    0.0000 C   0  0  0  0  0  0  0  0  0  0  0  0
    1.0534    0.5229    0.0000 C   0  0  0  0  0  0  0  0  0  0  0  0
  1  2  1  0
  2  3  2  0
  3  4  1  0
  4  5  2  0
  5  6  1  0
  6  7  2  0
  7  8  1  0
  8  9  1  0
  9 10  2  0
 10 11  1  0
 11 12  2  0
 12 13  1  0
 13 14  2  0
  7  2  1  0
 14  9  1  0
 14  6  1  0
M  END
> <Identifier>
Drug_129

> <Carcinogen>
0

$$$$

     RDKit          2D

 15 17  0  0  0  0  0  0  0  0999 V2000
   -3.4578   -2.2319    0.0000 C   0  0  0  0  0  0  0  0  0  0  0  0
   -2.8871   -0.8447    0.0000 C   0  0  0  0  0  0  0  0  0  0  0  0
   -3.8032    0.3431    0.0000 N   0  0  0  0  0  0  0  0  0  0  0  0
   -3.2326    1.7304    0.0000 C   0  0  0  0  0  0  0  0  0  0  0  0
   -1.7459    1.9298    0.0000 C   0  0  0  0  0  0  0  0  0  0  0  0
   -0.8298    0.7420    0.0000 C   0  0  0  0  0  0  0  0  0  0  0  0
   -1.4005   -0.6452    0.0000 C   0  0  0  0  0  0  0  0  0  0  0  0
   -0.2575   -1.6166    0.0000 N   0  0  0  0  0  0  0  0  0  0  0  0
    1.0196   -0.8297    0.0000 C   0  0  0  0  0  0  0  0  0  0  0  0
    2.4588   -1.2522    0.0000 C   0  0  0  0  0  0  0  0  0  0  0  0
    3.5444   -0.2171    0.0000 C   0  0  0  0  0  0  0  0  0  0  0  0
    4.9836   -0.6396    0.0000 O   0  0  0  0  0  0  0  0  0  0  0  0
    3.1906    1.2406    0.0000 C   0  0  0  0  0  0  0  0  0  0  0  0
    1.7514    1.6631    0.0000 C   0  0  0  0  0  0  0  0  0  0  0  0
    0.6658    0.6280    0.0000 C   0  0  0  0  0  0  0  0  0  0  0  0
  1  2  1  0
  2  3  2  0
  3  4  1  0
  4  5  2  0
  5  6  1  0
  6  7  2  0
  7  8  1  0
  8  9  1  0
  9 10  2  0
 10 11  1  0
 11 12  1  0
 11 13  2  0
 13 14  1  0
 14 15  2  0
  7  2  1  0
 15  9  1  0
 15  6  1  0
M  END
> <Identifier>
Drug_130

> <Carcinogen>
0

$$$$

     RDKit          2D

 31 34  0  0  0  0  0  0  0  0999 V2000
    6.1499    2.6943    0.0000 O   0  0  0  0  0  0  0  0  0  0  0  0
    6.4672    1.2282    0.0000 S   0  0  0  0  0  0  0  0  0  0  0  0
    6.7845   -0.2378    0.0000 O   0  0  0  0  0  0  0  0  0  0  0  0
    7.9332    1.5455    0.0000 O   0  0  0  0  0  0  0  0  0  0  0  0
    5.0011    0.9109    0.0000 C   0  0  0  0  0  0  0  0  0  0  0  0
    3.9933    2.0219    0.0000 C   0  0  0  0  0  0  0  0  0  0  0  0
    2.5273    1.7046    0.0000 C   0  0  0  0  0  0  0  0  0  0  0  0
    2.0690    0.2763    0.0000 C   0  0  0  0  0  0  0  0  0  0  0  0
    0.6030   -0.0410    0.0000 N   0  0  0  0  0  0  0  0  0  0  0  0
   -0.4049    1.0700    0.0000 N   0  0  0  0  0  0  0  0  0  0  0  0
   -1.8709    0.7527    0.0000 C   0  0  0  0  0  0  0  0  0  0  0  0
   -2.3291   -0.6756    0.0000 C   0  0  0  0  0  0  0  0  0  0  0  0
   -3.7952   -0.9929    0.0000 C   0  0  0  0  0  0  0  0  0  0  0  0
   -4.2534   -2.4212    0.0000 S   0  0  0  0  0  0  0  0  0  0  0  0
   -2.8251   -2.8794    0.0000 O   0  0  0  0  0  0  0  0  0  0  0  0
   -5.6817   -1.9630    0.0000 O   0  0  0  0  0  0  0  0  0  0  0  0
   -4.7117   -3.8495    0.0000 O   0  0  0  0  0  0  0  0  0  0  0  0
   -4.8030    0.1181    0.0000 C   0  0  0  0  0  0  0  0  0  0  0  0
   -6.2691   -0.1992    0.0000 C   0  0  0  0  0  0  0  0  0  0  0  0
   -7.2769    0.9118    0.0000 C   0  0  0  0  0  0  0  0  0  0  0  0
   -6.8187    2.3401    0.0000 C   0  0  0  0  0  0  0  0  0  0  0  0
   -5.3526    2.6574    0.0000 C   0  0  0  0  0  0  0  0  0  0  0  0
   -4.3448    1.5464    0.0000 C   0  0  0  0  0  0  0  0  0  0  0  0
   -2.8787    1.8637    0.0000 C   0  0  0  0  0  0  0  0  0  0  0  0
   -2.4205    3.2920    0.0000 O   0  0  0  0  0  0  0  0  0  0  0  0
    3.0768   -0.8347    0.0000 C   0  0  0  0  0  0  0  0  0  0  0  0
    2.6186   -2.2630    0.0000 C   0  0  0  0  0  0  0  0  0  0  0  0
    3.6264   -3.3740    0.0000 C   0  0  0  0  0  0  0  0  0  0  0  0
    5.0925   -3.0567    0.0000 C   0  0  0  0  0  0  0  0  0  0  0  0
    5.5507   -1.6284    0.0000 C   0  0  0  0  0  0  0  0  0  0  0  0
    4.5429   -0.5174    0.0000 C   0  0  0  0  0  0  0  0  0  0  0  0
  1  2  2  0
  2  3  2  0
  2  4  1  0
  2  5  1  0
  5  6  2  0
  6  7  1  0
  7  8  2  0
  8  9  1  0
  9 10  2  0
 10 11  1  0
 11 12  2  0
 12 13  1  0
 13 14  1  0
 14 15  2  0
 14 16  2  0
 14 17  1  0
 13 18  2  0
 18 19  1  0
 19 20  2  0
 20 21  1  0
 21 22  2  0
 22 23  1  0
 23 24  2  0
 24 25  1  0
  8 26  1  0
 26 27  2  0
 27 28  1  0
 28 29  2  0
 29 30  1  0
 30 31  2  0
 31  5  1  0
 24 11  1  0
 31 26  1  0
 23 18  1  0
M  END
> <Identifier>
Drug_131

> <Carcinogen>
0

$$$$

     RDKit          2D

 28 32  0  0  0  0  0  0  0  0999 V2000
    6.9107   -1.5586    0.0000 C   0  0  0  0  0  0  0  0  0  0  0  0
    6.1436   -0.2696    0.0000 O   0  0  0  0  0  0  0  0  0  0  0  0
    4.6437   -0.2894    0.0000 C   0  0  0  0  0  0  0  0  0  0  0  0
    3.9110   -1.5982    0.0000 C   0  0  0  0  0  0  0  0  0  0  0  0
    2.4111   -1.6181    0.0000 C   0  0  0  0  0  0  0  0  0  0  0  0
    1.6440   -0.3290    0.0000 C   0  0  0  0  0  0  0  0  0  0  0  0
    2.3767    0.9798    0.0000 C   0  0  0  0  0  0  0  0  0  0  0  0
    3.8766    0.9996    0.0000 C   0  0  0  0  0  0  0  0  0  0  0  0
    4.6094    2.3085    0.0000 O   0  0  0  0  0  0  0  0  0  0  0  0
    6.1093    2.3283    0.0000 C   0  0  0  0  0  0  0  0  0  0  0  0
    1.3584    2.0811    0.0000 C   0  0  0  0  0  0  0  0  0  0  0  0
    1.6509    3.5524    0.0000 O   0  0  0  0  0  0  0  0  0  0  0  0
   -0.0037    1.4530    0.0000 O   0  0  0  0  0  0  0  0  0  0  0  0
    0.1728   -0.0366    0.0000 C   0  0  0  0  0  0  0  0  0  0  0  0
   -0.9286   -1.0549    0.0000 C   0  0  0  0  0  0  0  0  0  0  0  0
   -2.3612   -0.6103    0.0000 C   0  0  0  0  0  0  0  0  0  0  0  0
   -2.6924    0.8527    0.0000 C   0  0  0  0  0  0  0  0  0  0  0  0
   -4.1250    1.2973    0.0000 C   0  0  0  0  0  0  0  0  0  0  0  0
   -5.2263    0.2790    0.0000 C   0  0  0  0  0  0  0  0  0  0  0  0
   -4.8951   -1.1840    0.0000 C   0  0  0  0  0  0  0  0  0  0  0  0
   -3.4625   -1.6286    0.0000 C   0  0  0  0  0  0  0  0  0  0  0  0
   -3.1313   -3.0916    0.0000 C   0  0  0  0  0  0  0  0  0  0  0  0
   -1.6987   -3.5362    0.0000 C   0  0  0  0  0  0  0  0  0  0  0  0
   -0.5974   -2.5179    0.0000 N   0  0  0  0  0  0  0  0  0  0  0  0
    0.8352   -2.9625    0.0000 C   0  0  0  0  0  0  0  0  0  0  0  0
   -6.5352    1.0117    0.0000 O   0  0  0  0  0  0  0  0  0  0  0  0
   -6.2427    2.4829    0.0000 C   0  0  0  0  0  0  0  0  0  0  0  0
   -4.7532    2.6594    0.0000 O   0  0  0  0  0  0  0  0  0  0  0  0
  1  2  1  0
  2  3  1  0
  3  4  2  0
  4  5  1  0
  5  6  2  0
  6  7  1  0
  7  8  2  0
  8  9  1  0
  9 10  1  0
  7 11  1  0
 11 12  2  0
 11 13  1  0
 14 13  1  1
 14 15  1  0
 15 16  1  0
 16 17  2  0
 17 18  1  0
 18 19  2  0
 19 20  1  0
 20 21  2  0
 21 22  1  0
 22 23  1  0
 23 24  1  0
 24 25  1  0
 19 26  1  0
 26 27  1  0
 27 28  1  0
  8  3  1  0
 15 24  1  6
 14  6  1  0
 21 16  1  0
 28 18  1  0
M  END
> <Identifier>
Drug_132

> <Carcinogen>
0

$$$$

     RDKit          2D

 16 18  0  0  0  0  0  0  0  0999 V2000
   -1.8419   -3.2042    0.0000 C   0  0  0  0  0  0  0  0  0  0  0  0
   -0.5305   -2.4759    0.0000 O   0  0  0  0  0  0  0  0  0  0  0  0
   -0.5056   -0.9761    0.0000 C   0  0  0  0  0  0  0  0  0  0  0  0
    0.8057   -0.2478    0.0000 C   0  0  0  0  0  0  0  0  0  0  0  0
    0.8307    1.2520    0.0000 C   0  0  0  0  0  0  0  0  0  0  0  0
   -0.4557    2.0235    0.0000 C   0  0  0  0  0  0  0  0  0  0  0  0
   -1.7671    1.2952    0.0000 C   0  0  0  0  0  0  0  0  0  0  0  0
   -1.7920   -0.2046    0.0000 C   0  0  0  0  0  0  0  0  0  0  0  0
   -3.2261   -0.6444    0.0000 O   0  0  0  0  0  0  0  0  0  0  0  0
   -4.0875    0.5837    0.0000 C   0  0  0  0  0  0  0  0  0  0  0  0
   -3.1857    1.7824    0.0000 O   0  0  0  0  0  0  0  0  0  0  0  0
    2.1420    1.9803    0.0000 C   0  0  0  0  0  0  0  0  0  0  0  0
    3.4284    1.2088    0.0000 C   0  0  0  0  0  0  0  0  0  0  0  0
    3.4034   -0.2910    0.0000 N   0  0  0  0  0  0  0  0  0  0  0  0
    4.6898   -1.0625    0.0000 C   0  0  0  0  0  0  0  0  0  0  0  0
    2.0921   -1.0193    0.0000 C   0  0  0  0  0  0  0  0  0  0  0  0
  1  2  1  0
  2  3  1  0
  3  4  2  0
  4  5  1  0
  5  6  2  0
  6  7  1  0
  7  8  2  0
  8  9  1  0
  9 10  1  0
 10 11  1  0
  5 12  1  0
 12 13  1  0
 13 14  1  0
 14 15  1  0
 14 16  1  0
  8  3  1  0
 16  4  1  0
 11  7  1  0
M  END
> <Identifier>
Drug_133

> <Carcinogen>
0

$$$$

     RDKit          2D

 15 16  0  0  0  0  0  0  0  0999 V2000
   -3.7711    1.6317    0.0000 C   0  0  0  0  0  0  0  0  0  0  0  0
   -2.5576    0.7500    0.0000 C   0  0  0  0  0  0  0  0  0  0  0  0
   -2.5576   -0.7500    0.0000 C   0  0  0  0  0  0  0  0  0  0  0  0
   -3.7711   -1.6317    0.0000 O   0  0  0  0  0  0  0  0  0  0  0  0
   -1.1310   -1.2135    0.0000 C   0  0  0  0  0  0  0  0  0  0  0  0
   -0.6675   -2.6401    0.0000 O   0  0  0  0  0  0  0  0  0  0  0  0
   -0.2493    0.0000    0.0000 N   0  0  0  0  0  0  0  0  0  0  0  0
    1.2507    0.0000    0.0000 C   0  0  0  0  0  0  0  0  0  0  0  0
    2.0007   -1.2990    0.0000 C   0  0  0  0  0  0  0  0  0  0  0  0
    3.5007   -1.2990    0.0000 C   0  0  0  0  0  0  0  0  0  0  0  0
    4.2507    0.0000    0.0000 C   0  0  0  0  0  0  0  0  0  0  0  0
    3.5007    1.2990    0.0000 C   0  0  0  0  0  0  0  0  0  0  0  0
    2.0007    1.2990    0.0000 C   0  0  0  0  0  0  0  0  0  0  0  0
   -1.1310    1.2135    0.0000 N   0  0  0  0  0  0  0  0  0  0  0  0
   -0.6675    2.6401    0.0000 C   0  0  0  0  0  0  0  0  0  0  0  0
  1  2  1  0
  2  3  2  0
  3  4  1  0
  3  5  1  0
  5  6  2  0
  5  7  1  0
  7  8  1  0
  8  9  2  0
  9 10  1  0
 10 11  2  0
 11 12  1  0
 12 13  2  0
  7 14  1  0
 14 15  1  0
 14  2  1  0
 13  8  1  0
M  END
> <Identifier>
Drug_134

> <Carcinogen>
0

$$$$

     RDKit          2D

 25 28  0  0  0  0  0  0  0  0999 V2000
   -5.9681    1.5060    0.0000 C   0  0  0  0  0  0  0  0  0  0  0  0
   -4.8045    0.5594    0.0000 O   0  0  0  0  0  0  0  0  0  0  0  0
   -3.4029    1.0938    0.0000 C   0  0  0  0  0  0  0  0  0  0  0  0
   -3.1650    2.5748    0.0000 C   0  0  0  0  0  0  0  0  0  0  0  0
   -1.7634    3.1092    0.0000 C   0  0  0  0  0  0  0  0  0  0  0  0
   -0.5998    2.1626    0.0000 C   0  0  0  0  0  0  0  0  0  0  0  0
   -0.8378    0.6816    0.0000 C   0  0  0  0  0  0  0  0  0  0  0  0
   -2.2394    0.1472    0.0000 C   0  0  0  0  0  0  0  0  0  0  0  0
   -2.4774   -1.3338    0.0000 O   0  0  0  0  0  0  0  0  0  0  0  0
    0.3258   -0.2651    0.0000 C   0  0  0  0  0  0  0  0  0  0  0  0
    0.0878   -1.7460    0.0000 C   0  0  0  0  0  0  0  0  0  0  0  0
   -1.3138   -2.2804    0.0000 O   0  0  0  0  0  0  0  0  0  0  0  0
   -1.5518   -3.7614    0.0000 C   0  0  0  0  0  0  0  0  0  0  0  0
    1.2514   -2.6927    0.0000 C   0  0  0  0  0  0  0  0  0  0  0  0
    1.0134   -4.1737    0.0000 O   0  0  0  0  0  0  0  0  0  0  0  0
   -0.3882   -4.7080    0.0000 C   0  0  0  0  0  0  0  0  0  0  0  0
    2.6530   -2.1583    0.0000 C   0  0  0  0  0  0  0  0  0  0  0  0
    2.8910   -0.6773    0.0000 C   0  0  0  0  0  0  0  0  0  0  0  0
    1.7274    0.2693    0.0000 C   0  0  0  0  0  0  0  0  0  0  0  0
    1.9654    1.7503    0.0000 C   0  0  0  0  0  0  0  0  0  0  0  0
    0.8018    2.6969    0.0000 C   0  0  0  0  0  0  0  0  0  0  0  0
    3.3670    2.2847    0.0000 N   0  0  0  0  0  0  0  0  0  0  0  0
    3.6049    3.7657    0.0000 C   0  0  0  0  0  0  0  0  0  0  0  0
    4.5305    1.3381    0.0000 C   0  0  0  0  0  0  0  0  0  0  0  0
    4.2926   -0.1429    0.0000 C   0  0  0  0  0  0  0  0  0  0  0  0
  1  2  1  0
  2  3  1  0
  3  4  2  0
  4  5  1  0
  5  6  2  0
  6  7  1  0
  7  8  2  0
  8  9  1  0
  7 10  1  0
 10 11  2  0
 11 12  1  0
 12 13  1  0
 11 14  1  0
 14 15  1  0
 15 16  1  0
 14 17  2  0
 17 18  1  0
 18 19  2  0
 19 20  1  0
 20 21  1  6
 20 22  1  0
 22 23  1  0
 22 24  1  0
 24 25  1  0
  8  3  1  0
 19 10  1  0
 21  6  1  0
 25 18  1  0
M  END
> <Identifier>
Drug_135

> <Carcinogen>
0

$$$$

     RDKit          2D

 21 20  0  0  0  0  0  0  0  0999 V2000
    6.8157    1.6888    0.0000 C   0  0  0  0  0  0  0  0  0  0  0  0
    5.5803    0.8381    0.0000 C   0  0  0  0  0  0  0  0  0  0  0  0
    5.6992   -0.6571    0.0000 O   0  0  0  0  0  0  0  0  0  0  0  0
    4.2258    1.4827    0.0000 N   0  0  0  0  0  0  0  0  0  0  0  0
    2.9904    0.6321    0.0000 C   0  0  0  0  0  0  0  0  0  0  0  0
    1.6359    1.2766    0.0000 C   0  0  0  0  0  0  0  0  0  0  0  0
    0.4005    0.4260    0.0000 C   0  0  0  0  0  0  0  0  0  0  0  0
    0.5195   -1.0693    0.0000 O   0  0  0  0  0  0  0  0  0  0  0  0
   -0.9540    1.0706    0.0000 N   0  0  0  0  0  0  0  0  0  0  0  0
   -2.1894    0.2199    0.0000 C   0  0  0  0  0  0  0  0  0  0  0  0
   -3.5438    0.8645    0.0000 C   0  0  0  0  0  0  0  0  0  0  0  0
   -4.7793    0.0138    0.0000 C   0  0  0  0  0  0  0  0  0  0  0  0
   -6.1337    0.6584    0.0000 C   0  0  0  0  0  0  0  0  0  0  0  0
   -6.2527    2.1537    0.0000 O   0  0  0  0  0  0  0  0  0  0  0  0
   -7.3692   -0.1923    0.0000 O   0  0  0  0  0  0  0  0  0  0  0  0
   -2.0704   -1.2754    0.0000 C   0  0  0  0  0  0  0  0  0  0  0  0
   -0.7160   -1.9200    0.0000 O   0  0  0  0  0  0  0  0  0  0  0  0
   -3.3059   -2.1261    0.0000 O   0  0  0  0  0  0  0  0  0  0  0  0
    3.1094   -0.8632    0.0000 C   0  0  0  0  0  0  0  0  0  0  0  0
    4.4638   -1.5078    0.0000 O   0  0  0  0  0  0  0  0  0  0  0  0
    1.8739   -1.7139    0.0000 O   0  0  0  0  0  0  0  0  0  0  0  0
  1  2  1  0
  2  3  2  0
  2  4  1  0
  4  5  1  0
  5  6  1  6
  6  7  1  0
  7  8  2  0
  7  9  1  0
  9 10  1  0
 10 11  1  1
 11 12  1  0
 12 13  1  0
 13 14  2  0
 13 15  1  0
 10 16  1  0
 16 17  2  0
 16 18  1  0
  5 19  1  0
 19 20  2  0
 19 21  1  0
M  END
> <Identifier>
Drug_136

> <Carcinogen>
0

$$$$

     RDKit          2D

 20 22  0  0  0  0  0  0  0  0999 V2000
    2.0582    1.9401    0.0000 S   0  0  0  0  0  0  0  0  0  0  0  0
    1.4637    0.5629    0.0000 C   0  0  0  0  0  0  0  0  0  0  0  0
    2.3590   -0.6406    0.0000 N   0  0  0  0  0  0  0  0  0  0  0  0
    3.8489   -0.4669    0.0000 C   0  0  0  0  0  0  0  0  0  0  0  0
    4.7443   -1.6704    0.0000 C   0  0  0  0  0  0  0  0  0  0  0  0
    6.2342   -1.4967    0.0000 C   0  0  0  0  0  0  0  0  0  0  0  0
    6.8288   -0.1196    0.0000 C   0  0  0  0  0  0  0  0  0  0  0  0
    5.9334    1.0839    0.0000 C   0  0  0  0  0  0  0  0  0  0  0  0
    4.4435    0.9102    0.0000 C   0  0  0  0  0  0  0  0  0  0  0  0
   -0.0262    0.3893    0.0000 N   0  0  0  0  0  0  0  0  0  0  0  0
   -0.9216    1.5928    0.0000 C   0  0  0  0  0  0  0  0  0  0  0  0
   -2.4115    1.4191    0.0000 C   0  0  0  0  0  0  0  0  0  0  0  0
   -3.0061    0.0420    0.0000 C   0  0  0  0  0  0  0  0  0  0  0  0
   -4.4960   -0.1316    0.0000 C   0  0  0  0  0  0  0  0  0  0  0  0
   -5.2313   -1.4391    0.0000 C   0  0  0  0  0  0  0  0  0  0  0  0
   -6.7019   -1.1438    0.0000 N   0  0  0  0  0  0  0  0  0  0  0  0
   -6.8756    0.3461    0.0000 C   0  0  0  0  0  0  0  0  0  0  0  0
   -5.5122    0.9717    0.0000 N   0  0  0  0  0  0  0  0  0  0  0  0
   -2.1107   -1.1615    0.0000 C   0  0  0  0  0  0  0  0  0  0  0  0
   -0.6208   -0.9878    0.0000 C   0  0  0  0  0  0  0  0  0  0  0  0
  1  2  2  0
  2  3  1  0
  3  4  1  0
  4  5  1  0
  5  6  1  0
  6  7  1  0
  7  8  1  0
  8  9  1  0
  2 10  1  0
 10 11  1  0
 11 12  1  0
 12 13  1  0
 13 14  1  0
 14 15  1  0
 15 16  2  0
 16 17  1  0
 17 18  2  0
 13 19  1  0
 19 20  1  0
  9  4  1  0
 20 10  1  0
 18 14  1  0
M  END
> <Identifier>
Drug_137

> <Carcinogen>
0

$$$$

     RDKit          2D

 13 11  0  0  0  0  0  0  0  0999 V2000
    4.1820   -1.5796    0.0000 N   0  0  0  0  0  0  0  0  0  0  0  0
    4.1204   -0.0808    0.0000 C   0  0  0  0  0  0  0  0  0  0  0  0
    5.3876    0.7219    0.0000 N   0  0  0  0  0  0  0  0  0  0  0  0
    2.7917    0.6152    0.0000 N   0  0  0  0  0  0  0  0  0  0  0  0
    1.5245   -0.1875    0.0000 O   0  0  0  0  0  0  0  0  0  0  0  0
    0.1958    0.5085    0.0000 C   0  0  0  0  0  0  0  0  0  0  0  0
   -1.0713   -0.2943    0.0000 C   0  0  0  0  0  0  0  0  0  0  0  0
   -2.4001    0.4018    0.0000 C   0  0  0  0  0  0  0  0  0  0  0  0
   -2.4617    1.9005    0.0000 N   0  0  0  0  0  0  0  0  0  0  0  0
   -3.6672   -0.4010    0.0000 C   0  0  0  0  0  0  0  0  0  0  0  0
   -3.6056   -1.8997    0.0000 O   0  0  0  0  0  0  0  0  0  0  0  0
   -4.9960    0.2950    0.0000 O   0  0  0  0  0  0  0  0  0  0  0  0
    0.0000    2.9005    0.0000 O   0  0  0  0  0  0  0  0  0  0  0  0
  1  2  2  0
  2  3  1  0
  2  4  1  0
  4  5  1  0
  5  6  1  0
  6  7  1  0
  7  8  1  0
  8  9  1  1
  8 10  1  0
 10 11  2  0
 10 12  1  0
M  END
> <Identifier>
Drug_138

> <Carcinogen>
0

$$$$

     RDKit          2D

 26 28  0  0  0  0  0  0  0  0999 V2000
   -6.9821    1.6053    0.0000 C   0  0  0  0  0  0  0  0  0  0  0  0
   -6.3947    0.2251    0.0000 O   0  0  0  0  0  0  0  0  0  0  0  0
   -4.9057    0.0438    0.0000 C   0  0  0  0  0  0  0  0  0  0  0  0
   -4.0041    1.2426    0.0000 C   0  0  0  0  0  0  0  0  0  0  0  0
   -2.5151    1.0613    0.0000 C   0  0  0  0  0  0  0  0  0  0  0  0
   -1.9277   -0.3189    0.0000 C   0  0  0  0  0  0  0  0  0  0  0  0
   -0.4387   -0.5002    0.0000 C   0  0  0  0  0  0  0  0  0  0  0  0
    0.4629    0.6986    0.0000 C   0  0  0  0  0  0  0  0  0  0  0  0
    1.9519    0.5173    0.0000 C   0  0  0  0  0  0  0  0  0  0  0  0
    2.5393   -0.8629    0.0000 C   0  0  0  0  0  0  0  0  0  0  0  0
    4.0283   -1.0442    0.0000 C   0  0  0  0  0  0  0  0  0  0  0  0
    4.6158   -2.4244    0.0000 O   0  0  0  0  0  0  0  0  0  0  0  0
    3.7142   -3.6233    0.0000 C   0  0  0  0  0  0  0  0  0  0  0  0
    4.9298    0.1546    0.0000 C   0  0  0  0  0  0  0  0  0  0  0  0
    6.4188   -0.0267    0.0000 O   0  0  0  0  0  0  0  0  0  0  0  0
    7.0063   -1.4069    0.0000 C   0  0  0  0  0  0  0  0  0  0  0  0
    4.3424    1.5348    0.0000 C   0  0  0  0  0  0  0  0  0  0  0  0
    2.8534    1.7161    0.0000 C   0  0  0  0  0  0  0  0  0  0  0  0
    2.2659    3.0963    0.0000 C   0  0  0  0  0  0  0  0  0  0  0  0
    0.7769    3.2776    0.0000 C   0  0  0  0  0  0  0  0  0  0  0  0
   -0.1246    2.0788    0.0000 N   0  0  0  0  0  0  0  0  0  0  0  0
   -1.6136    2.2601    0.0000 C   0  0  0  0  0  0  0  0  0  0  0  0
   -2.8292   -1.5177    0.0000 C   0  0  0  0  0  0  0  0  0  0  0  0
   -4.3182   -1.3364    0.0000 C   0  0  0  0  0  0  0  0  0  0  0  0
   -5.2198   -2.5352    0.0000 O   0  0  0  0  0  0  0  0  0  0  0  0
   -4.6323   -3.9154    0.0000 C   0  0  0  0  0  0  0  0  0  0  0  0
  1  2  1  0
  2  3  1  0
  3  4  2  0
  4  5  1  0
  5  6  2  0
  6  7  1  0
  7  8  1  0
  8  9  1  0
  9 10  2  0
 10 11  1  0
 11 12  1  0
 12 13  1  0
 11 14  2  0
 14 15  1  0
 15 16  1  0
 14 17  1  0
 17 18  2  0
 18 19  1  0
 19 20  1  0
 20 21  1  0
 21 22  1  0
  6 23  1  0
 23 24  2  0
 24 25  1  0
 25 26  1  0
 24  3  1  0
 21  8  1  0
 18  9  1  0
M  END
> <Identifier>
Drug_139

> <Carcinogen>
0

$$$$

     RDKit          2D

 27 28  0  0  0  0  0  0  0  0999 V2000
   -9.1758    0.6826    0.0000 C   0  0  0  0  0  0  0  0  0  0  0  0
   -7.6941    0.9161    0.0000 C   0  0  0  0  0  0  0  0  0  0  0  0
   -6.7511   -0.2504    0.0000 C   0  0  0  0  0  0  0  0  0  0  0  0
   -5.2693   -0.0169    0.0000 C   0  0  0  0  0  0  0  0  0  0  0  0
   -4.2095   -1.0784    0.0000 C   0  0  0  0  0  0  0  0  0  0  0  0
   -2.8725   -0.3985    0.0000 C   0  0  0  0  0  0  0  0  0  0  0  0
   -1.5365   -1.0806    0.0000 C   0  0  0  0  0  0  0  0  0  0  0  0
   -1.4592   -2.5786    0.0000 O   0  0  0  0  0  0  0  0  0  0  0  0
   -0.2778   -0.2646    0.0000 N   0  0  0  0  0  0  0  0  0  0  0  0
    1.0581   -0.9467    0.0000 C   0  0  0  0  0  0  0  0  0  0  0  0
    1.1354   -2.4447    0.0000 C   0  0  0  0  0  0  0  0  0  0  0  0
   -0.1232   -3.2607    0.0000 C   0  0  0  0  0  0  0  0  0  0  0  0
    2.4714   -3.1268    0.0000 O   0  0  0  0  0  0  0  0  0  0  0  0
    2.3168   -0.1308    0.0000 C   0  0  0  0  0  0  0  0  0  0  0  0
    3.6527   -0.8128    0.0000 O   0  0  0  0  0  0  0  0  0  0  0  0
    4.9114    0.0031    0.0000 C   0  0  0  0  0  0  0  0  0  0  0  0
    6.2474   -0.6789    0.0000 S   0  0  0  0  0  0  0  0  0  0  0  0
    6.3247   -2.1769    0.0000 C   0  0  0  0  0  0  0  0  0  0  0  0
    4.8341    1.5011    0.0000 C   0  0  0  0  0  0  0  0  0  0  0  0
    6.0928    2.3171    0.0000 O   0  0  0  0  0  0  0  0  0  0  0  0
    3.4981    2.1832    0.0000 C   0  0  0  0  0  0  0  0  0  0  0  0
    3.4208    3.6812    0.0000 O   0  0  0  0  0  0  0  0  0  0  0  0
    2.2395    1.3673    0.0000 C   0  0  0  0  0  0  0  0  0  0  0  0
    0.9035    2.0493    0.0000 O   0  0  0  0  0  0  0  0  0  0  0  0
   -3.1059    1.0832    0.0000 N   0  0  0  0  0  0  0  0  0  0  0  0
   -2.0444    2.1430    0.0000 C   0  0  0  0  0  0  0  0  0  0  0  0
   -4.5873    1.3190    0.0000 C   0  0  0  0  0  0  0  0  0  0  0  0
  1  2  1  0
  2  3  1  0
  4  3  1  1
  4  5  1  0
  5  6  1  0
  6  7  1  6
  7  8  2  0
  7  9  1  0
 10  9  1  1
 10 11  1  0
 11 12  1  6
 11 13  1  0
 10 14  1  0
 14 15  1  6
 15 16  1  0
 16 17  1  1
 17 18  1  0
 16 19  1  0
 19 20  1  1
 19 21  1  0
 21 22  1  6
 21 23  1  0
 23 24  1  1
  6 25  1  0
 25 26  1  0
 25 27  1  0
 27  4  1  0
 23 14  1  0
M  END
> <Identifier>
Drug_140

> <Carcinogen>
0

$$$$

     RDKit          2D

 25 27  0  0  0  0  0  0  0  0999 V2000
    0.6452   -0.7479    0.0000 C   0  0  0  0  0  0  0  0  0  0  0  0
    0.3199    0.7164    0.0000 N   0  0  0  0  0  0  0  0  0  0  0  0
   -1.1109    1.1668    0.0000 C   0  0  0  0  0  0  0  0  0  0  0  0
   -2.2164    0.1529    0.0000 C   0  0  0  0  0  0  0  0  0  0  0  0
   -3.6471    0.6033    0.0000 C   0  0  0  0  0  0  0  0  0  0  0  0
   -3.9725    2.0676    0.0000 O   0  0  0  0  0  0  0  0  0  0  0  0
   -4.7526   -0.4106    0.0000 C   0  0  0  0  0  0  0  0  0  0  0  0
   -6.1834    0.0398    0.0000 C   0  0  0  0  0  0  0  0  0  0  0  0
   -7.2888   -0.9741    0.0000 C   0  0  0  0  0  0  0  0  0  0  0  0
   -6.9635   -2.4384    0.0000 C   0  0  0  0  0  0  0  0  0  0  0  0
   -5.5327   -2.8888    0.0000 C   0  0  0  0  0  0  0  0  0  0  0  0
   -4.4272   -1.8749    0.0000 C   0  0  0  0  0  0  0  0  0  0  0  0
   -1.4363    2.6311    0.0000 C   0  0  0  0  0  0  0  0  0  0  0  0
   -0.3308    3.6450    0.0000 C   0  0  0  0  0  0  0  0  0  0  0  0
    1.1000    3.1946    0.0000 C   0  0  0  0  0  0  0  0  0  0  0  0
    1.4253    1.7303    0.0000 C   0  0  0  0  0  0  0  0  0  0  0  0
    2.8561    1.2800    0.0000 C   0  0  0  0  0  0  0  0  0  0  0  0
    3.1814   -0.1843    0.0000 C   0  0  0  0  0  0  0  0  0  0  0  0
    2.0760   -1.1982    0.0000 O   0  0  0  0  0  0  0  0  0  0  0  0
    4.6122   -0.6347    0.0000 C   0  0  0  0  0  0  0  0  0  0  0  0
    4.9376   -2.0990    0.0000 C   0  0  0  0  0  0  0  0  0  0  0  0
    6.3684   -2.5494    0.0000 C   0  0  0  0  0  0  0  0  0  0  0  0
    7.4738   -1.5355    0.0000 C   0  0  0  0  0  0  0  0  0  0  0  0
    7.1485   -0.0712    0.0000 C   0  0  0  0  0  0  0  0  0  0  0  0
    5.7177    0.3792    0.0000 C   0  0  0  0  0  0  0  0  0  0  0  0
  1  2  1  0
  2  3  1  0
  3  4  1  0
  4  5  1  0
  5  6  1  0
  5  7  1  0
  7  8  2  0
  8  9  1  0
  9 10  2  0
 10 11  1  0
 11 12  2  0
  3 13  1  0
 13 14  1  0
 14 15  1  0
 15 16  1  0
 16 17  1  0
 17 18  1  0
 18 19  1  0
 18 20  1  0
 20 21  2  0
 21 22  1  0
 22 23  2  0
 23 24  1  0
 24 25  2  0
 16  2  1  0
 25 20  1  0
 12  7  1  0
M  END
> <Identifier>
Drug_141

> <Carcinogen>
0

$$$$

     RDKit          2D

 25 27  0  0  0  0  0  0  0  0999 V2000
    0.6452   -0.7479    0.0000 C   0  0  0  0  0  0  0  0  0  0  0  0
    0.3199    0.7164    0.0000 N   0  0  0  0  0  0  0  0  0  0  0  0
   -1.1109    1.1668    0.0000 C   0  0  0  0  0  0  0  0  0  0  0  0
   -2.2164    0.1529    0.0000 C   0  0  0  0  0  0  0  0  0  0  0  0
   -3.6471    0.6033    0.0000 C   0  0  0  0  0  0  0  0  0  0  0  0
   -3.9725    2.0676    0.0000 O   0  0  0  0  0  0  0  0  0  0  0  0
   -4.7526   -0.4106    0.0000 C   0  0  0  0  0  0  0  0  0  0  0  0
   -6.1834    0.0398    0.0000 C   0  0  0  0  0  0  0  0  0  0  0  0
   -7.2888   -0.9741    0.0000 C   0  0  0  0  0  0  0  0  0  0  0  0
   -6.9635   -2.4384    0.0000 C   0  0  0  0  0  0  0  0  0  0  0  0
   -5.5327   -2.8888    0.0000 C   0  0  0  0  0  0  0  0  0  0  0  0
   -4.4272   -1.8749    0.0000 C   0  0  0  0  0  0  0  0  0  0  0  0
   -1.4363    2.6311    0.0000 C   0  0  0  0  0  0  0  0  0  0  0  0
   -0.3308    3.6450    0.0000 C   0  0  0  0  0  0  0  0  0  0  0  0
    1.1000    3.1946    0.0000 C   0  0  0  0  0  0  0  0  0  0  0  0
    1.4253    1.7303    0.0000 C   0  0  0  0  0  0  0  0  0  0  0  0
    2.8561    1.2800    0.0000 C   0  0  0  0  0  0  0  0  0  0  0  0
    3.1814   -0.1843    0.0000 C   0  0  0  0  0  0  0  0  0  0  0  0
    2.0760   -1.1982    0.0000 O   0  0  0  0  0  0  0  0  0  0  0  0
    4.6122   -0.6347    0.0000 C   0  0  0  0  0  0  0  0  0  0  0  0
    4.9376   -2.0990    0.0000 C   0  0  0  0  0  0  0  0  0  0  0  0
    6.3684   -2.5494    0.0000 C   0  0  0  0  0  0  0  0  0  0  0  0
    7.4738   -1.5355    0.0000 C   0  0  0  0  0  0  0  0  0  0  0  0
    7.1485   -0.0712    0.0000 C   0  0  0  0  0  0  0  0  0  0  0  0
    5.7177    0.3792    0.0000 C   0  0  0  0  0  0  0  0  0  0  0  0
  1  2  1  0
  2  3  1  0
  3  4  1  6
  4  5  1  0
  5  6  1  1
  5  7  1  0
  7  8  2  0
  8  9  1  0
  9 10  2  0
 10 11  1  0
 11 12  2  0
  3 13  1  0
 13 14  1  0
 14 15  1  0
 15 16  1  0
 16 17  1  6
 17 18  1  0
 18 19  2  0
 18 20  1  0
 20 21  2  0
 21 22  1  0
 22 23  2  0
 23 24  1  0
 24 25  2  0
 16  2  1  0
 25 20  1  0
 12  7  1  0
M  END
> <Identifier>
Drug_142

> <Carcinogen>
0

$$$$

     RDKit          2D

 29 32  0  0  0  0  0  0  0  0999 V2000
   -4.8151   -4.6328    0.0000 C   0  0  0  0  0  0  0  0  0  0  0  0
   -3.3166   -4.5651    0.0000 O   0  0  0  0  0  0  0  0  0  0  0  0
   -2.6261   -3.2335    0.0000 C   0  0  0  0  0  0  0  0  0  0  0  0
   -1.1429   -3.0094    0.0000 C   0  0  0  0  0  0  0  0  0  0  0  0
   -0.8976   -1.5296    0.0000 C   0  0  0  0  0  0  0  0  0  0  0  0
   -0.2071   -0.1980    0.0000 C   0  0  0  0  0  0  0  0  0  0  0  0
   -1.5387    0.4925    0.0000 C   0  0  0  0  0  0  0  0  0  0  0  0
   -1.8290    1.9642    0.0000 C   0  0  0  0  0  0  0  0  0  0  0  0
   -3.2809    2.3411    0.0000 N   0  0  0  0  0  0  0  0  0  0  0  0
   -3.6804    3.7869    0.0000 C   0  0  0  0  0  0  0  0  0  0  0  0
   -5.1323    4.1638    0.0000 C   0  0  0  0  0  0  0  0  0  0  0  0
   -2.6281    4.8558    0.0000 O   0  0  0  0  0  0  0  0  0  0  0  0
   -0.8595    3.1087    0.0000 C   0  0  0  0  0  0  0  0  0  0  0  0
    0.6398    3.0643    0.0000 C   0  0  0  0  0  0  0  0  0  0  0  0
    1.5400    1.8644    0.0000 C   0  0  0  0  0  0  0  0  0  0  0  0
    2.9858    2.2639    0.0000 C   0  0  0  0  0  0  0  0  0  0  0  0
    4.0547    1.2116    0.0000 C   0  0  0  0  0  0  0  0  0  0  0  0
    5.5005    1.6111    0.0000 O   0  0  0  0  0  0  0  0  0  0  0  0
    6.5694    0.5587    0.0000 C   0  0  0  0  0  0  0  0  0  0  0  0
    3.6778   -0.2403    0.0000 C   0  0  0  0  0  0  0  0  0  0  0  0
    4.7467   -1.2927    0.0000 O   0  0  0  0  0  0  0  0  0  0  0  0
    4.3697   -2.7445    0.0000 C   0  0  0  0  0  0  0  0  0  0  0  0
    2.2319   -0.6398    0.0000 C   0  0  0  0  0  0  0  0  0  0  0  0
    1.8550   -2.0917    0.0000 O   0  0  0  0  0  0  0  0  0  0  0  0
    2.9239   -3.1440    0.0000 C   0  0  0  0  0  0  0  0  0  0  0  0
    1.1630    0.4125    0.0000 C   0  0  0  0  0  0  0  0  0  0  0  0
   -2.2292   -0.8391    0.0000 C   0  0  0  0  0  0  0  0  0  0  0  0
   -3.2975   -1.8921    0.0000 C   0  0  0  0  0  0  0  0  0  0  0  0
   -4.7773   -1.6469    0.0000 O   0  0  0  0  0  0  0  0  0  0  0  0
  1  2  1  0
  2  3  1  0
  3  4  2  0
  5  4  1  1
  5  6  1  0
  6  7  2  0
  7  8  1  0
  8  9  1  1
  9 10  1  0
 10 11  1  0
 10 12  2  0
  8 13  1  0
 13 14  1  0
 14 15  1  0
 15 16  2  0
 16 17  1  0
 17 18  1  0
 18 19  1  0
 17 20  2  0
 20 21  1  0
 21 22  1  0
 20 23  1  0
 23 24  1  0
 24 25  1  0
 23 26  2  0
  7 27  1  0
 27 28  1  1
 28 29  2  0
 28  3  1  0
 27  5  1  0
 26  6  1  0
 26 15  1  0
M  END
> <Identifier>
Drug_143

> <Carcinogen>
0

$$$$

     RDKit          2D

 19 22  0  0  0  0  0  0  0  0999 V2000
   -2.4335    3.1468    0.0000 C   0  0  0  0  0  0  0  0  0  0  0  0
   -2.1704    1.6700    0.0000 N   0  0  0  0  0  0  0  0  0  0  0  0
   -3.3177    0.7038    0.0000 C   0  0  0  0  0  0  0  0  0  0  0  0
   -3.0546   -0.7729    0.0000 C   0  0  0  0  0  0  0  0  0  0  0  0
   -4.2020   -1.7392    0.0000 C   0  0  0  0  0  0  0  0  0  0  0  0
   -5.6124   -1.2286    0.0000 O   0  0  0  0  0  0  0  0  0  0  0  0
   -1.6442   -1.2835    0.0000 C   0  0  0  0  0  0  0  0  0  0  0  0
   -0.4968   -0.3172    0.0000 C   0  0  0  0  0  0  0  0  0  0  0  0
    0.9136   -0.8278    0.0000 C   0  0  0  0  0  0  0  0  0  0  0  0
    1.1767   -2.3045    0.0000 C   0  0  0  0  0  0  0  0  0  0  0  0
    2.5872   -2.8150    0.0000 C   0  0  0  0  0  0  0  0  0  0  0  0
    3.7345   -1.8488    0.0000 C   0  0  0  0  0  0  0  0  0  0  0  0
    3.4714   -0.3721    0.0000 C   0  0  0  0  0  0  0  0  0  0  0  0
    4.2640    0.9014    0.0000 N   0  0  0  0  0  0  0  0  0  0  0  0
    3.2978    2.0488    0.0000 C   0  0  0  0  0  0  0  0  0  0  0  0
    1.7979    1.6152    0.0000 C   0  0  0  0  0  0  0  0  0  0  0  0
    2.0610    0.1385    0.0000 C   0  0  0  0  0  0  0  0  0  0  0  0
    0.3874    2.1257    0.0000 C   0  0  0  0  0  0  0  0  0  0  0  0
   -0.7599    1.1595    0.0000 C   0  0  0  0  0  0  0  0  0  0  0  0
  1  2  1  0
  2  3  1  0
  3  4  1  0
  4  5  1  1
  5  6  1  0
  4  7  1  0
  7  8  2  0
  8  9  1  0
  9 10  2  0
 10 11  1  0
 11 12  2  0
 12 13  1  0
 13 14  1  0
 14 15  1  0
 15 16  2  0
 16 17  1  0
 16 18  1  0
 19 18  1  6
 19  2  1  0
 19  8  1  0
 17  9  1  0
 17 13  2  0
M  END
> <Identifier>
Drug_144

> <Carcinogen>
0

$$$$

     RDKit          2D

 17 18  0  0  0  0  0  0  0  0999 V2000
   -5.7241   -2.1481    0.0000 C   0  0  0  0  0  0  0  0  0  0  0  0
   -4.2248   -2.1944    0.0000 O   0  0  0  0  0  0  0  0  0  0  0  0
   -3.4350   -0.9192    0.0000 C   0  0  0  0  0  0  0  0  0  0  0  0
   -4.1445    0.4024    0.0000 C   0  0  0  0  0  0  0  0  0  0  0  0
   -3.3547    1.6777    0.0000 C   0  0  0  0  0  0  0  0  0  0  0  0
   -1.8555    1.6313    0.0000 C   0  0  0  0  0  0  0  0  0  0  0  0
   -0.8178    2.7145    0.0000 N   0  0  0  0  0  0  0  0  0  0  0  0
    0.5330    2.0623    0.0000 C   0  0  0  0  0  0  0  0  0  0  0  0
    0.3302    0.5761    0.0000 C   0  0  0  0  0  0  0  0  0  0  0  0
    1.4134   -0.4615    0.0000 C   0  0  0  0  0  0  0  0  0  0  0  0
    2.8536   -0.0423    0.0000 C   0  0  0  0  0  0  0  0  0  0  0  0
    3.9368   -1.0800    0.0000 N   0  0  0  0  0  0  0  0  0  0  0  0
    5.3770   -0.6608    0.0000 C   0  0  0  0  0  0  0  0  0  0  0  0
    6.4602   -1.6984    0.0000 C   0  0  0  0  0  0  0  0  0  0  0  0
    5.7340    0.7961    0.0000 O   0  0  0  0  0  0  0  0  0  0  0  0
   -1.1460    0.3097    0.0000 C   0  0  0  0  0  0  0  0  0  0  0  0
   -1.9357   -0.9655    0.0000 C   0  0  0  0  0  0  0  0  0  0  0  0
  1  2  1  0
  2  3  1  0
  3  4  2  0
  4  5  1  0
  5  6  2  0
  6  7  1  0
  7  8  1  0
  8  9  2  0
  9 10  1  0
 10 11  1  0
 11 12  1  0
 12 13  1  0
 13 14  1  0
 13 15  2  0
  9 16  1  0
 16 17  2  0
 17  3  1  0
 16  6  1  0
M  END
> <Identifier>
Drug_145

> <Carcinogen>
0

$$$$

     RDKit          2D

 16 18  0  0  0  0  0  0  0  0999 V2000
   -5.6043   -0.4435    0.0000 C   0  0  0  0  0  0  0  0  0  0  0  0
   -4.2786   -1.1453    0.0000 O   0  0  0  0  0  0  0  0  0  0  0  0
   -3.0080   -0.3481    0.0000 C   0  0  0  0  0  0  0  0  0  0  0  0
   -3.0631    1.1509    0.0000 C   0  0  0  0  0  0  0  0  0  0  0  0
   -1.7925    1.9481    0.0000 C   0  0  0  0  0  0  0  0  0  0  0  0
   -0.4668    1.2463    0.0000 C   0  0  0  0  0  0  0  0  0  0  0  0
    0.9418    1.7619    0.0000 N   0  0  0  0  0  0  0  0  0  0  0  0
    1.8675    0.5816    0.0000 C   0  0  0  0  0  0  0  0  0  0  0  0
    1.0310   -0.6635    0.0000 C   0  0  0  0  0  0  0  0  0  0  0  0
   -0.4117   -0.2527    0.0000 C   0  0  0  0  0  0  0  0  0  0  0  0
   -1.6823   -1.0499    0.0000 C   0  0  0  0  0  0  0  0  0  0  0  0
    1.6910   -2.0105    0.0000 C   0  0  0  0  0  0  0  0  0  0  0  0
    3.1875   -2.1124    0.0000 C   0  0  0  0  0  0  0  0  0  0  0  0
    4.0240   -0.8674    0.0000 N   0  0  0  0  0  0  0  0  0  0  0  0
    3.3640    0.4796    0.0000 C   0  0  0  0  0  0  0  0  0  0  0  0
    4.2005    1.7247    0.0000 C   0  0  0  0  0  0  0  0  0  0  0  0
  1  2  1  0
  2  3  1  0
  3  4  2  0
  4  5  1  0
  5  6  2  0
  6  7  1  0
  7  8  1  0
  8  9  2  0
  9 10  1  0
 10 11  2  0
  9 12  1  0
 12 13  1  0
 13 14  1  0
 14 15  2  0
 15 16  1  0
 11  3  1  0
 10  6  1  0
 15  8  1  0
M  END
> <Identifier>
Drug_146

> <Carcinogen>
0

$$$$

     RDKit          2D

 23 25  0  0  0  0  0  0  0  0999 V2000
    2.7844   -2.8917    0.0000 C   0  0  0  0  0  0  0  0  0  0  0  0
    1.7680   -1.7886    0.0000 C   0  0  0  0  0  0  0  0  0  0  0  0
    0.4232   -2.4531    0.0000 C   0  0  0  0  0  0  0  0  0  0  0  0
    0.6819   -3.9307    0.0000 O   0  0  0  0  0  0  0  0  0  0  0  0
   -1.0674   -2.2851    0.0000 O   0  0  0  0  0  0  0  0  0  0  0  0
   -2.2304   -1.3379    0.0000 C   0  0  0  0  0  0  0  0  0  0  0  0
   -3.4422   -2.2219    0.0000 C   0  0  0  0  0  0  0  0  0  0  0  0
   -4.6575   -1.3427    0.0000 C   0  0  0  0  0  0  0  0  0  0  0  0
   -4.1968    0.0848    0.0000 N   0  0  0  0  0  0  0  0  0  0  0  0
   -4.7036    1.4966    0.0000 C   0  0  0  0  0  0  0  0  0  0  0  0
   -3.5176    2.4149    0.0000 C   0  0  0  0  0  0  0  0  0  0  0  0
   -2.3183    1.5393    0.0000 C   0  0  0  0  0  0  0  0  0  0  0  0
   -1.2152    2.5557    0.0000 C   0  0  0  0  0  0  0  0  0  0  0  0
    0.2623    2.8144    0.0000 O   0  0  0  0  0  0  0  0  0  0  0  0
    1.6451    2.2332    0.0000 C   0  0  0  0  0  0  0  0  0  0  0  0
    2.5924    3.3963    0.0000 O   0  0  0  0  0  0  0  0  0  0  0  0
    2.4942    0.9967    0.0000 C   0  0  0  0  0  0  0  0  0  0  0  0
    3.9699    0.7275    0.0000 C   0  0  0  0  0  0  0  0  0  0  0  0
    3.3851    2.2036    0.0000 O   0  0  0  0  0  0  0  0  0  0  0  0
    2.5400   -0.5026    0.0000 C   0  0  0  0  0  0  0  0  0  0  0  0
    3.5028   -1.6528    0.0000 C   0  0  0  0  0  0  0  0  0  0  0  0
    3.9965   -0.1438    0.0000 O   0  0  0  0  0  0  0  0  0  0  0  0
   -2.6968    0.0878    0.0000 C   0  0  0  0  0  0  0  0  0  0  0  0
  2  1  1  1
  2  3  1  0
  3  4  2  0
  3  5  1  0
  5  6  1  0
  6  7  1  6
  7  8  1  0
  8  9  1  0
  9 10  1  0
 10 11  1  0
 11 12  2  0
 12 13  1  0
 13 14  1  0
 14 15  1  0
 15 16  2  0
 15 17  1  0
 17 18  1  1
 17 19  1  0
 17 20  1  0
 20 21  1  1
 20 22  1  0
 12 23  1  0
 20  2  1  0
 23  6  1  0
 23  9  1  6
M  END
> <Identifier>
Drug_147

> <Carcinogen>
0

$$$$

     RDKit          2D

 23 25  0  0  0  0  0  0  0  0999 V2000
    2.3107    3.1056    0.0000 O   0  0  0  0  0  0  0  0  0  0  0  0
    1.7418    1.7177    0.0000 C   0  0  0  0  0  0  0  0  0  0  0  0
    0.2554    1.5165    0.0000 C   0  0  0  0  0  0  0  0  0  0  0  0
   -0.6622    2.7031    0.0000 O   0  0  0  0  0  0  0  0  0  0  0  0
   -0.3136    0.1285    0.0000 C   0  0  0  0  0  0  0  0  0  0  0  0
   -1.8000   -0.0727    0.0000 C   0  0  0  0  0  0  0  0  0  0  0  0
   -2.7175    1.1139    0.0000 C   0  0  0  0  0  0  0  0  0  0  0  0
   -4.2040    0.9127    0.0000 C   0  0  0  0  0  0  0  0  0  0  0  0
   -5.1215    2.0993    0.0000 O   0  0  0  0  0  0  0  0  0  0  0  0
   -4.7729   -0.4753    0.0000 C   0  0  0  0  0  0  0  0  0  0  0  0
   -6.2593   -0.6765    0.0000 O   0  0  0  0  0  0  0  0  0  0  0  0
   -3.8553   -1.6619    0.0000 C   0  0  0  0  0  0  0  0  0  0  0  0
   -4.4243   -3.0499    0.0000 O   0  0  0  0  0  0  0  0  0  0  0  0
   -2.3689   -1.4607    0.0000 C   0  0  0  0  0  0  0  0  0  0  0  0
    0.6040   -1.0581    0.0000 O   0  0  0  0  0  0  0  0  0  0  0  0
    2.0904   -0.8569    0.0000 C   0  0  0  0  0  0  0  0  0  0  0  0
    3.0079   -2.0435    0.0000 C   0  0  0  0  0  0  0  0  0  0  0  0
    4.4944   -1.8423    0.0000 C   0  0  0  0  0  0  0  0  0  0  0  0
    5.4119   -3.0289    0.0000 O   0  0  0  0  0  0  0  0  0  0  0  0
    5.0633   -0.4543    0.0000 C   0  0  0  0  0  0  0  0  0  0  0  0
    4.1457    0.7323    0.0000 C   0  0  0  0  0  0  0  0  0  0  0  0
    4.7147    2.1203    0.0000 O   0  0  0  0  0  0  0  0  0  0  0  0
    2.6593    0.5311    0.0000 C   0  0  0  0  0  0  0  0  0  0  0  0
  1  2  2  0
  2  3  1  0
  3  4  1  0
  3  5  2  0
  5  6  1  0
  6  7  2  0
  7  8  1  0
  8  9  1  0
  8 10  2  0
 10 11  1  0
 10 12  1  0
 12 13  1  0
 12 14  2  0
  5 15  1  0
 15 16  1  0
 16 17  2  0
 17 18  1  0
 18 19  1  0
 18 20  2  0
 20 21  1  0
 21 22  1  0
 21 23  2  0
 23  2  1  0
 14  6  1  0
 23 16  1  0
M  END
> <Identifier>
Drug_148

> <Carcinogen>
0

$$$$

     RDKit          2D

 20 22  0  0  0  0  0  0  0  0999 V2000
   -6.4841    0.0862    0.0000 C   0  0  0  0  0  0  0  0  0  0  0  0
   -5.1624   -0.6230    0.0000 N   0  0  0  0  0  0  0  0  0  0  0  0
   -3.8873    0.1671    0.0000 C   0  0  0  0  0  0  0  0  0  0  0  0
   -3.9340    1.6664    0.0000 N   0  0  0  0  0  0  0  0  0  0  0  0
   -2.6589    2.4564    0.0000 C   0  0  0  0  0  0  0  0  0  0  0  0
   -1.3372    1.7472    0.0000 N   0  0  0  0  0  0  0  0  0  0  0  0
   -1.2905    0.2479    0.0000 C   0  0  0  0  0  0  0  0  0  0  0  0
   -2.5656   -0.5421    0.0000 C   0  0  0  0  0  0  0  0  0  0  0  0
   -2.2082   -1.9989    0.0000 N   0  0  0  0  0  0  0  0  0  0  0  0
   -0.7122   -2.1092    0.0000 C   0  0  0  0  0  0  0  0  0  0  0  0
   -0.1451   -0.7206    0.0000 N   0  0  0  0  0  0  0  0  0  0  0  0
    1.3117   -0.3632    0.0000 C   0  0  0  0  0  0  0  0  0  0  0  0
    1.8789    1.0254    0.0000 O   0  0  0  0  0  0  0  0  0  0  0  0
    3.3748    0.9152    0.0000 C   0  0  0  0  0  0  0  0  0  0  0  0
    4.3433    2.0606    0.0000 C   0  0  0  0  0  0  0  0  0  0  0  0
    5.8196    1.7945    0.0000 O   0  0  0  0  0  0  0  0  0  0  0  0
    3.7322   -0.5417    0.0000 C   0  0  0  0  0  0  0  0  0  0  0  0
    5.1209   -1.1088    0.0000 O   0  0  0  0  0  0  0  0  0  0  0  0
    2.4571   -1.3317    0.0000 C   0  0  0  0  0  0  0  0  0  0  0  0
    2.3469   -2.8277    0.0000 O   0  0  0  0  0  0  0  0  0  0  0  0
  1  2  1  0
  2  3  1  0
  3  4  2  0
  4  5  1  0
  5  6  2  0
  6  7  1  0
  7  8  2  0
  8  9  1  0
  9 10  2  0
 10 11  1  0
 12 11  1  6
 12 13  1  0
 13 14  1  0
 14 15  1  6
 15 16  1  0
 14 17  1  0
 17 18  1  1
 17 19  1  0
 19 20  1  1
  8  3  1  0
 19 12  1  0
 11  7  1  0
M  END
> <Identifier>
Drug_149

> <Carcinogen>
0

$$$$

     RDKit          2D

 25 27  0  0  0  0  0  0  0  0999 V2000
    5.9311   -0.1201    0.0000 C   0  0  0  0  0  0  0  0  0  0  0  0
    5.0408    1.0871    0.0000 O   0  0  0  0  0  0  0  0  0  0  0  0
    3.5502    0.9197    0.0000 C   0  0  0  0  0  0  0  0  0  0  0  0
    2.6599    2.1269    0.0000 C   0  0  0  0  0  0  0  0  0  0  0  0
    1.1693    1.9595    0.0000 C   0  0  0  0  0  0  0  0  0  0  0  0
    0.5689    0.5849    0.0000 C   0  0  0  0  0  0  0  0  0  0  0  0
    1.4592   -0.6223    0.0000 C   0  0  0  0  0  0  0  0  0  0  0  0
    0.8589   -1.9970    0.0000 O   0  0  0  0  0  0  0  0  0  0  0  0
    1.7492   -3.2042    0.0000 C   0  0  0  0  0  0  0  0  0  0  0  0
    2.9499   -0.4549    0.0000 C   0  0  0  0  0  0  0  0  0  0  0  0
    3.8402   -1.6621    0.0000 O   0  0  0  0  0  0  0  0  0  0  0  0
    3.2398   -3.0368    0.0000 C   0  0  0  0  0  0  0  0  0  0  0  0
   -0.8801    0.1971    0.0000 C   0  0  0  0  0  0  0  0  0  0  0  0
   -0.8245   -1.3018    0.0000 C   0  0  0  0  0  0  0  0  0  0  0  0
   -1.9618   -2.2799    0.0000 C   0  0  0  0  0  0  0  0  0  0  0  0
   -3.4356   -2.0005    0.0000 C   0  0  0  0  0  0  0  0  0  0  0  0
   -4.3267   -3.2071    0.0000 O   0  0  0  0  0  0  0  0  0  0  0  0
   -4.1360   -0.6741    0.0000 C   0  0  0  0  0  0  0  0  0  0  0  0
   -5.6350   -0.7296    0.0000 O   0  0  0  0  0  0  0  0  0  0  0  0
   -3.5357    0.7006    0.0000 C   0  0  0  0  0  0  0  0  0  0  0  0
   -2.0867    1.0883    0.0000 C   0  0  0  0  0  0  0  0  0  0  0  0
   -2.1422    2.5873    0.0000 C   0  0  0  0  0  0  0  0  0  0  0  0
   -3.5169    3.1876    0.0000 N   0  0  0  0  0  0  0  0  0  0  0  0
   -1.0049    3.5653    0.0000 C   0  0  0  0  0  0  0  0  0  0  0  0
    0.4688    3.2859    0.0000 C   0  0  0  0  0  0  0  0  0  0  0  0
  1  2  1  0
  2  3  1  0
  3  4  2  0
  4  5  1  0
  5  6  2  0
  6  7  1  0
  7  8  1  0
  8  9  1  0
  7 10  2  0
 10 11  1  0
 11 12  1  0
  6 13  1  0
 13 14  2  0
 14 15  1  0
 15 16  2  0
 16 17  1  0
 16 18  1  0
 18 19  2  0
 18 20  1  0
 20 21  2  0
 21 22  1  0
 22 23  1  1
 22 24  1  0
 24 25  1  0
 10  3  1  0
 21 13  1  0
 25  5  1  0
M  END
> <Identifier>
Drug_150

> <Carcinogen>
0

$$$$

     RDKit          2D

 33 37  0  0  0  0  0  0  0  0999 V2000
    2.9069   -3.2210    0.0000 C   0  0  0  0  0  0  0  0  0  0  0  0
    3.6443   -1.9148    0.0000 C   0  0  0  0  0  0  0  0  0  0  0  0
    2.8819   -0.6231    0.0000 C   0  0  0  0  0  0  0  0  0  0  0  0
    1.3819   -0.6375    0.0000 C   0  0  0  0  0  0  0  0  0  0  0  0
    0.6445   -1.9437    0.0000 C   0  0  0  0  0  0  0  0  0  0  0  0
   -0.8555   -1.9581    0.0000 C   0  0  0  0  0  0  0  0  0  0  0  0
   -1.6179   -0.6664    0.0000 C   0  0  0  0  0  0  0  0  0  0  0  0
   -3.1179   -0.6808    0.0000 C   0  0  0  0  0  0  0  0  0  0  0  0
   -2.3554   -1.9726    0.0000 C   0  0  0  0  0  0  0  0  0  0  0  0
   -3.8553   -1.9870    0.0000 C   0  0  0  0  0  0  0  0  0  0  0  0
   -5.3553   -2.0015    0.0000 C   0  0  0  0  0  0  0  0  0  0  0  0
   -6.1177   -0.7097    0.0000 C   0  0  0  0  0  0  0  0  0  0  0  0
   -7.6177   -0.7241    0.0000 O   0  0  0  0  0  0  0  0  0  0  0  0
   -5.3803    0.5965    0.0000 C   0  0  0  0  0  0  0  0  0  0  0  0
   -5.1340    2.0762    0.0000 C   0  0  0  0  0  0  0  0  0  0  0  0
   -6.7947    1.0959    0.0000 C   0  0  0  0  0  0  0  0  0  0  0  0
   -3.8803    0.6109    0.0000 C   0  0  0  0  0  0  0  0  0  0  0  0
   -3.1429    1.9171    0.0000 C   0  0  0  0  0  0  0  0  0  0  0  0
   -1.6429    1.9316    0.0000 C   0  0  0  0  0  0  0  0  0  0  0  0
   -0.8805    0.6398    0.0000 C   0  0  0  0  0  0  0  0  0  0  0  0
   -0.1430    1.9460    0.0000 C   0  0  0  0  0  0  0  0  0  0  0  0
    0.6195    0.6542    0.0000 C   0  0  0  0  0  0  0  0  0  0  0  0
    2.1194    0.6687    0.0000 C   0  0  0  0  0  0  0  0  0  0  0  0
    1.3569    1.9604    0.0000 C   0  0  0  0  0  0  0  0  0  0  0  0
    2.8569    1.9749    0.0000 C   0  0  0  0  0  0  0  0  0  0  0  0
    3.6193    0.6831    0.0000 C   0  0  0  0  0  0  0  0  0  0  0  0
    4.3568    1.9893    0.0000 C   0  0  0  0  0  0  0  0  0  0  0  0
    3.5943    3.2811    0.0000 O   0  0  0  0  0  0  0  0  0  0  0  0
    5.8567    2.0038    0.0000 O   0  0  0  0  0  0  0  0  0  0  0  0
    5.1193    0.6976    0.0000 C   0  0  0  0  0  0  0  0  0  0  0  0
    5.8817   -0.5942    0.0000 C   0  0  0  0  0  0  0  0  0  0  0  0
    5.1443   -1.9004    0.0000 C   0  0  0  0  0  0  0  0  0  0  0  0
    5.9067   -3.1922    0.0000 C   0  0  0  0  0  0  0  0  0  0  0  0
  2  1  1  6
  2  3  1  0
  3  4  1  1
  4  5  2  0
  5  6  1  0
  7  6  1  6
  7  8  1  0
  8  9  1  6
  8 10  1  0
 10 11  1  0
 11 12  1  0
 12 13  1  6
 12 14  1  0
 14 15  1  0
 14 16  1  0
 14 17  1  0
 17 18  1  6
 18 19  1  0
 19 20  1  0
 20 21  1  6
 20 22  1  0
 22 23  1  1
 22 24  1  0
 24 25  1  0
 25 26  1  0
 26 27  1  6
 27 28  2  0
 27 29  1  0
 26 30  1  0
 30 31  1  0
 31 32  1  0
 32 33  1  1
 32  2  1  0
 26  3  1  0
 22  4  1  0
 20  7  1  0
 17  8  1  0
M  END
> <Identifier>
Drug_151

> <Carcinogen>
0

$$$$

     RDKit          2D

 18 20  0  0  0  0  0  0  0  0999 V2000
    1.6974   -3.9626    0.0000 C   0  0  0  0  0  0  0  0  0  0  0  0
    1.3459   -2.5044    0.0000 N   0  0  0  0  0  0  0  0  0  0  0  0
    2.4331   -1.4709    0.0000 C   0  0  0  0  0  0  0  0  0  0  0  0
    2.0816   -0.0126    0.0000 C   0  0  0  0  0  0  0  0  0  0  0  0
    3.1688    1.0209    0.0000 C   0  0  0  0  0  0  0  0  0  0  0  0
    4.6074    0.5961    0.0000 N   0  0  0  0  0  0  0  0  0  0  0  0
    2.8173    2.4791    0.0000 C   0  0  0  0  0  0  0  0  0  0  0  0
    1.3787    2.9039    0.0000 C   0  0  0  0  0  0  0  0  0  0  0  0
    0.2916    1.8704    0.0000 C   0  0  0  0  0  0  0  0  0  0  0  0
    0.6430    0.4121    0.0000 C   0  0  0  0  0  0  0  0  0  0  0  0
   -0.4441   -0.6214    0.0000 C   0  0  0  0  0  0  0  0  0  0  0  0
   -1.8827   -0.1966    0.0000 C   0  0  0  0  0  0  0  0  0  0  0  0
   -2.2342    1.2616    0.0000 C   0  0  0  0  0  0  0  0  0  0  0  0
   -3.6728    1.6864    0.0000 C   0  0  0  0  0  0  0  0  0  0  0  0
   -4.7599    0.6529    0.0000 C   0  0  0  0  0  0  0  0  0  0  0  0
   -4.4085   -0.8053    0.0000 C   0  0  0  0  0  0  0  0  0  0  0  0
   -2.9699   -1.2301    0.0000 C   0  0  0  0  0  0  0  0  0  0  0  0
   -0.0927   -2.0796    0.0000 C   0  0  0  0  0  0  0  0  0  0  0  0
  1  2  1  0
  2  3  1  0
  3  4  1  0
  4  5  2  0
  5  6  1  0
  5  7  1  0
  7  8  2  0
  8  9  1  0
  9 10  2  0
 10 11  1  0
 11 12  1  0
 12 13  2  0
 13 14  1  0
 14 15  2  0
 15 16  1  0
 16 17  2  0
 11 18  1  0
 18  2  1  0
 10  4  1  0
 17 12  1  0
M  END
> <Identifier>
Drug_152

> <Carcinogen>
0

$$$$

     RDKit          2D

 18 18  0  0  0  0  0  0  0  0999 V2000
   -1.7550    3.1573    0.0000 C   0  0  0  0  0  0  0  0  0  0  0  0
   -1.7102    1.6580    0.0000 C   0  0  0  0  0  0  0  0  0  0  0  0
   -0.3893    0.9471    0.0000 N   0  0  0  0  0  0  0  0  0  0  0  0
   -0.3445   -0.5522    0.0000 C   0  0  0  0  0  0  0  0  0  0  0  0
   -1.6206   -1.3407    0.0000 N   0  0  0  0  0  0  0  0  0  0  0  0
   -1.5758   -2.8400    0.0000 C   0  0  0  0  0  0  0  0  0  0  0  0
   -1.5310   -4.3393    0.0000 N   0  0  0  0  0  0  0  0  0  0  0  0
    0.9764   -1.2631    0.0000 N   0  0  0  0  0  0  0  0  0  0  0  0
    2.2524   -0.4746    0.0000 C   0  0  0  0  0  0  0  0  0  0  0  0
    2.2076    1.0247    0.0000 C   0  0  0  0  0  0  0  0  0  0  0  0
    3.4837    1.8132    0.0000 C   0  0  0  0  0  0  0  0  0  0  0  0
    4.8045    1.1023    0.0000 N   0  0  0  0  0  0  0  0  0  0  0  0
    4.8493   -0.3970    0.0000 C   0  0  0  0  0  0  0  0  0  0  0  0
    3.5733   -1.1855    0.0000 C   0  0  0  0  0  0  0  0  0  0  0  0
   -2.9862    0.8695    0.0000 C   0  0  0  0  0  0  0  0  0  0  0  0
   -3.7747    2.1456    0.0000 C   0  0  0  0  0  0  0  0  0  0  0  0
   -2.1978   -0.4065    0.0000 C   0  0  0  0  0  0  0  0  0  0  0  0
   -4.2623    0.0811    0.0000 C   0  0  0  0  0  0  0  0  0  0  0  0
  1  2  1  0
  2  3  1  0
  3  4  1  0
  4  5  2  0
  5  6  1  0
  6  7  3  0
  4  8  1  0
  8  9  1  0
  9 10  2  0
 10 11  1  0
 11 12  2  0
 12 13  1  0
 13 14  2  0
  2 15  1  0
 15 16  1  0
 15 17  1  0
 15 18  1  0
 14  9  1  0
M  END
> <Identifier>
Drug_153

> <Carcinogen>
0

$$$$

     RDKit          2D

 23 24  0  0  0  0  0  0  0  0999 V2000
    4.7731   -3.3640    0.0000 C   0  0  0  0  0  0  0  0  0  0  0  0
    4.9517   -1.8747    0.0000 O   0  0  0  0  0  0  0  0  0  0  0  0
    3.7512   -0.9753    0.0000 C   0  0  0  0  0  0  0  0  0  0  0  0
    2.3721   -1.5653    0.0000 C   0  0  0  0  0  0  0  0  0  0  0  0
    1.1716   -0.6660    0.0000 C   0  0  0  0  0  0  0  0  0  0  0  0
   -0.2075   -1.2560    0.0000 C   0  0  0  0  0  0  0  0  0  0  0  0
   -1.4080   -0.3566    0.0000 C   0  0  0  0  0  0  0  0  0  0  0  0
   -2.7871   -0.9466    0.0000 C   0  0  0  0  0  0  0  0  0  0  0  0
   -2.9657   -2.4360    0.0000 O   0  0  0  0  0  0  0  0  0  0  0  0
   -3.9876   -0.0473    0.0000 N   0  0  0  0  0  0  0  0  0  0  0  0
   -3.8090    1.4420    0.0000 C   0  0  0  0  0  0  0  0  0  0  0  0
   -5.0095    2.3414    0.0000 C   0  0  0  0  0  0  0  0  0  0  0  0
   -6.3886    1.7514    0.0000 C   0  0  0  0  0  0  0  0  0  0  0  0
   -6.5672    0.2621    0.0000 C   0  0  0  0  0  0  0  0  0  0  0  0
   -5.3667   -0.6373    0.0000 C   0  0  0  0  0  0  0  0  0  0  0  0
   -5.5453   -2.1266    0.0000 O   0  0  0  0  0  0  0  0  0  0  0  0
    1.3502    0.8234    0.0000 C   0  0  0  0  0  0  0  0  0  0  0  0
    2.7293    1.4133    0.0000 C   0  0  0  0  0  0  0  0  0  0  0  0
    2.9079    2.9027    0.0000 O   0  0  0  0  0  0  0  0  0  0  0  0
    4.2870    3.4927    0.0000 C   0  0  0  0  0  0  0  0  0  0  0  0
    3.9298    0.5140    0.0000 C   0  0  0  0  0  0  0  0  0  0  0  0
    5.3089    1.1040    0.0000 O   0  0  0  0  0  0  0  0  0  0  0  0
    6.5094    0.2047    0.0000 C   0  0  0  0  0  0  0  0  0  0  0  0
  1  2  1  0
  2  3  1  0
  3  4  2  0
  4  5  1  0
  5  6  1  0
  6  7  2  0
  7  8  1  0
  8  9  2  0
  8 10  1  0
 10 11  1  0
 11 12  1  0
 12 13  1  0
 13 14  2  0
 14 15  1  0
 15 16  2  0
  5 17  2  0
 17 18  1  0
 18 19  1  0
 19 20  1  0
 18 21  2  0
 21 22  1  0
 22 23  1  0
 21  3  1  0
 15 10  1  0
M  END
> <Identifier>
Drug_154

> <Carcinogen>
0

$$$$

     RDKit          2D

 17 19  0  0  0  0  0  0  0  0999 V2000
    5.5733    0.7398    0.0000 C   0  0  0  0  0  0  0  0  0  0  0  0
    5.3361   -0.7413    0.0000 C   0  0  0  0  0  0  0  0  0  0  0  0
    3.9348   -1.2764    0.0000 C   0  0  0  0  0  0  0  0  0  0  0  0
    2.7707   -0.3303    0.0000 C   0  0  0  0  0  0  0  0  0  0  0  0
    1.3694   -0.8654    0.0000 C   0  0  0  0  0  0  0  0  0  0  0  0
    0.2053    0.0806    0.0000 N   0  0  0  0  0  0  0  0  0  0  0  0
   -1.1960   -0.4545    0.0000 C   0  0  0  0  0  0  0  0  0  0  0  0
   -1.4332   -1.9356    0.0000 N   0  0  0  0  0  0  0  0  0  0  0  0
   -2.8345   -2.4707    0.0000 C   0  0  0  0  0  0  0  0  0  0  0  0
   -3.9986   -1.5247    0.0000 N   0  0  0  0  0  0  0  0  0  0  0  0
   -3.7613   -0.0435    0.0000 C   0  0  0  0  0  0  0  0  0  0  0  0
   -4.7033    1.1238    0.0000 N   0  0  0  0  0  0  0  0  0  0  0  0
   -3.8841    2.3804    0.0000 C   0  0  0  0  0  0  0  0  0  0  0  0
   -2.4359    1.9896    0.0000 N   0  0  0  0  0  0  0  0  0  0  0  0
   -2.3600    0.4915    0.0000 C   0  0  0  0  0  0  0  0  0  0  0  0
    3.0080    1.1508    0.0000 C   0  0  0  0  0  0  0  0  0  0  0  0
    4.4093    1.6859    0.0000 C   0  0  0  0  0  0  0  0  0  0  0  0
  1  2  2  0
  2  3  1  0
  3  4  2  0
  4  5  1  0
  5  6  1  0
  6  7  1  0
  7  8  2  0
  8  9  1  0
  9 10  2  0
 10 11  1  0
 11 12  1  0
 12 13  2  0
 13 14  1  0
 14 15  1  0
  4 16  1  0
 16 17  2  0
 17  1  1  0
 15  7  1  0
 15 11  2  0
M  END
> <Identifier>
Drug_155

> <Carcinogen>
0

$$$$

     RDKit          2D

 11 12  0  0  0  0  0  0  0  0999 V2000
   -0.9773    0.1672    0.0000 C   0  0  0  0  0  0  0  0  0  0  0  0
   -0.2023   -0.0192    0.0000 N   0  0  0  0  0  0  0  0  0  0  0  0
    0.5369    1.2860    0.0000 C   0  0  0  0  0  0  0  0  0  0  0  0
    2.0369    1.2985    0.0000 C   0  0  0  0  0  0  0  0  0  0  0  0
    2.7976    0.0058    0.0000 C   0  0  0  0  0  0  0  0  0  0  0  0
    2.0585   -1.2995    0.0000 C   0  0  0  0  0  0  0  0  0  0  0  0
    0.5585   -1.3120    0.0000 C   0  0  0  0  0  0  0  0  0  0  0  0
   -0.9414   -1.3245    0.0000 C   0  0  0  0  0  0  0  0  0  0  0  0
   -1.7022   -0.0317    0.0000 C   0  0  0  0  0  0  0  0  0  0  0  0
   -3.2022   -0.0442    0.0000 O   0  0  0  0  0  0  0  0  0  0  0  0
   -0.9630    1.2735    0.0000 C   0  0  0  0  0  0  0  0  0  0  0  0
  1  2  1  0
  2  3  1  0
  3  4  1  0
  4  5  1  0
  5  6  1  0
  6  7  1  0
  7  8  1  0
  8  9  1  0
  9 10  2  0
  9 11  1  0
  7  2  1  0
 11  3  1  0
M  END
> <Identifier>
Drug_156

> <Carcinogen>
0

$$$$

     RDKit          2D

 15 15  0  0  0  0  0  0  0  0999 V2000
    4.6949    0.4450    0.0000 C   0  0  0  0  0  0  0  0  0  0  0  0
    3.2071    0.6360    0.0000 C   0  0  0  0  0  0  0  0  0  0  0  0
    2.6286    2.0200    0.0000 O   0  0  0  0  0  0  0  0  0  0  0  0
    2.2978   -0.5569    0.0000 N   0  0  0  0  0  0  0  0  0  0  0  0
    2.8763   -1.9409    0.0000 Na  0  0  0  0  0  1  0  0  0  0  0  0
    0.8100   -0.3659    0.0000 S   0  0  0  0  0  0  0  0  0  0  0  0
    0.6190   -1.8537    0.0000 O   0  0  0  0  0  0  0  0  0  0  0  0
    1.0010    1.1219    0.0000 O   0  0  0  0  0  0  0  0  0  0  0  0
   -0.6778   -0.1749    0.0000 C   0  0  0  0  0  0  0  0  0  0  0  0
   -1.5871   -1.3679    0.0000 C   0  0  0  0  0  0  0  0  0  0  0  0
   -3.0749   -1.1769    0.0000 C   0  0  0  0  0  0  0  0  0  0  0  0
   -3.6534    0.2071    0.0000 C   0  0  0  0  0  0  0  0  0  0  0  0
   -5.1412    0.3981    0.0000 N   0  0  0  0  0  0  0  0  0  0  0  0
   -2.7441    1.4001    0.0000 C   0  0  0  0  0  0  0  0  0  0  0  0
   -1.2563    1.2090    0.0000 C   0  0  0  0  0  0  0  0  0  0  0  0
  1  2  1  0
  2  3  2  0
  2  4  1  0
  4  5  1  0
  4  6  1  0
  6  7  2  0
  6  8  2  0
  6  9  1  0
  9 10  2  0
 10 11  1  0
 11 12  2  0
 12 13  1  0
 12 14  1  0
 14 15  2  0
 15  9  1  0
M  END
> <Identifier>
Drug_157

> <Carcinogen>
0

$$$$

     RDKit          2D

 24 26  0  0  0  0  0  0  0  0999 V2000
    4.5745   -0.1778    0.0000 C   0  0  0  0  0  0  0  0  0  0  0  0
    3.0798   -0.0514    0.0000 C   0  0  0  0  0  0  0  0  0  0  0  0
    2.5709   -1.4625    0.0000 C   0  0  0  0  0  0  0  0  0  0  0  0
    1.4247   -2.4300    0.0000 C   0  0  0  0  0  0  0  0  0  0  0  0
    2.0626   -3.7876    0.0000 C   0  0  0  0  0  0  0  0  0  0  0  0
    1.2059   -5.0188    0.0000 C   0  0  0  0  0  0  0  0  0  0  0  0
   -0.0518   -2.6948    0.0000 C   0  0  0  0  0  0  0  0  0  0  0  0
   -0.1781   -4.1895    0.0000 O   0  0  0  0  0  0  0  0  0  0  0  0
   -1.4628   -2.1859    0.0000 O   0  0  0  0  0  0  0  0  0  0  0  0
   -2.4304   -1.0397    0.0000 C   0  0  0  0  0  0  0  0  0  0  0  0
   -3.7527   -1.7478    0.0000 C   0  0  0  0  0  0  0  0  0  0  0  0
   -4.8348   -0.7090    0.0000 C   0  0  0  0  0  0  0  0  0  0  0  0
   -4.1812    0.6411    0.0000 N   0  0  0  0  0  0  0  0  0  0  0  0
   -4.5229    2.1017    0.0000 C   0  0  0  0  0  0  0  0  0  0  0  0
   -3.2394    2.8780    0.0000 C   0  0  0  0  0  0  0  0  0  0  0  0
   -2.1863    1.8478    0.0000 C   0  0  0  0  0  0  0  0  0  0  0  0
   -1.0400    2.8153    0.0000 C   0  0  0  0  0  0  0  0  0  0  0  0
    0.4364    3.0801    0.0000 O   0  0  0  0  0  0  0  0  0  0  0  0
    1.8474    2.5713    0.0000 C   0  0  0  0  0  0  0  0  0  0  0  0
    2.7042    3.8025    0.0000 O   0  0  0  0  0  0  0  0  0  0  0  0
    2.8150    1.4250    0.0000 C   0  0  0  0  0  0  0  0  0  0  0  0
    3.5612    2.7263    0.0000 C   0  0  0  0  0  0  0  0  0  0  0  0
    4.2930    1.1689    0.0000 O   0  0  0  0  0  0  0  0  0  0  0  0
   -2.6952    0.4367    0.0000 C   0  0  0  0  0  0  0  0  0  0  0  0
  1  2  2  0
  2  3  1  0
  3  4  1  0
  4  5  2  0
  5  6  1  0
  4  7  1  0
  7  8  2  0
  7  9  1  0
  9 10  1  0
 10 11  1  6
 11 12  1  0
 12 13  1  0
 13 14  1  0
 14 15  1  0
 15 16  2  0
 16 17  1  0
 17 18  1  0
 18 19  1  0
 19 20  2  0
 19 21  1  0
 21 22  1  1
 21 23  1  0
 16 24  1  0
 21  2  1  0
 24 10  1  0
 24 13  1  6
M  END
> <Identifier>
Drug_158

> <Carcinogen>
0

$$$$

     RDKit          2D

 10 10  0  0  0  0  0  0  0  0999 V2000
    1.7533   -1.8087    0.0000 C   0  0  0  0  0  0  0  0  0  0  0  0
    0.8759   -0.5922    0.0000 N   0  0  0  0  0  4  0  0  0  0  0  0
   -0.2423   -1.5920    0.0000 C   0  0  0  0  0  0  0  0  0  0  0  0
    2.1775    0.1533    0.0000 C   0  0  0  0  0  0  0  0  0  0  0  0
    1.8707    1.6216    0.0000 C   0  0  0  0  0  0  0  0  0  0  0  0
    0.3795    1.7836    0.0000 C   0  0  0  0  0  0  0  0  0  0  0  0
   -0.2354    0.4154    0.0000 C   0  0  0  0  0  0  0  0  0  0  0  0
   -1.7037    0.1086    0.0000 C   0  0  0  0  0  0  0  0  0  0  0  0
   -2.1721   -1.3164    0.0000 O   0  0  0  0  0  0  0  0  0  0  0  0
   -2.7035    1.2268    0.0000 O   0  0  0  0  0  1  0  0  0  0  0  0
  1  2  1  0
  2  3  1  0
  2  4  1  0
  4  5  1  0
  5  6  1  0
  6  7  1  0
  7  8  1  6
  8  9  2  0
  8 10  1  0
  7  2  1  0
M  CHG  2   2   1  10  -1
M  END
> <Identifier>
Drug_159

> <Carcinogen>
0

$$$$

     RDKit          2D

 40 42  0  0  0  0  0  0  0  0999 V2000
    2.0826   -3.4738    0.0000 C   0  0  0  0  0  0  0  0  0  0  0  0
    3.5788   -3.5812    0.0000 N   0  0  0  0  0  0  0  0  0  0  0  0
    4.4199   -2.3393    0.0000 C   0  0  0  0  0  0  0  0  0  0  0  0
    3.7649   -0.9898    0.0000 C   0  0  0  0  0  0  0  0  0  0  0  0
    2.2687   -0.8824    0.0000 O   0  0  0  0  0  0  0  0  0  0  0  0
    1.6137    0.4671    0.0000 C   0  0  0  0  0  0  0  0  0  0  0  0
    0.1370    0.7303    0.0000 C   0  0  0  0  0  0  0  0  0  0  0  0
   -0.9440   -0.3096    0.0000 O   0  0  0  0  0  0  0  0  0  0  0  0
   -2.3851    0.1066    0.0000 C   0  0  0  0  0  0  0  0  0  0  0  0
   -2.7452    1.5627    0.0000 C   0  0  0  0  0  0  0  0  0  0  0  0
   -1.6642    2.6026    0.0000 O   0  0  0  0  0  0  0  0  0  0  0  0
   -4.1863    1.9789    0.0000 C   0  0  0  0  0  0  0  0  0  0  0  0
   -4.5464    3.4350    0.0000 O   0  0  0  0  0  0  0  0  0  0  0  0
   -5.2673    0.9389    0.0000 C   0  0  0  0  0  0  0  0  0  0  0  0
   -6.7084    1.3551    0.0000 N   0  0  0  0  0  0  0  0  0  0  0  0
   -7.7894    0.3152    0.0000 C   0  0  0  0  0  0  0  0  0  0  0  0
   -7.4292   -1.1410    0.0000 N   0  0  0  0  0  0  0  0  0  0  0  0
   -9.2305    0.7314    0.0000 N   0  0  0  0  0  0  0  0  0  0  0  0
   -4.9071   -0.5172    0.0000 C   0  0  0  0  0  0  0  0  0  0  0  0
   -5.9881   -1.5571    0.0000 O   0  0  0  0  0  0  0  0  0  0  0  0
   -3.4660   -0.9334    0.0000 C   0  0  0  0  0  0  0  0  0  0  0  0
   -3.1059   -2.3895    0.0000 N   0  0  0  0  0  0  0  0  0  0  0  0
   -4.1869   -3.4295    0.0000 C   0  0  0  0  0  0  0  0  0  0  0  0
   -5.6280   -3.0133    0.0000 N   0  0  0  0  0  0  0  0  0  0  0  0
   -3.8268   -4.8856    0.0000 N   0  0  0  0  0  0  0  0  0  0  0  0
   -0.0689    2.2161    0.0000 O   0  0  0  0  0  0  0  0  0  0  0  0
    1.2805    2.8711    0.0000 C   0  0  0  0  0  0  0  0  0  0  0  0
    1.5438    4.3478    0.0000 C   0  0  0  0  0  0  0  0  0  0  0  0
    2.3205    1.7901    0.0000 C   0  0  0  0  0  0  0  0  0  0  0  0
    3.5624    0.9490    0.0000 O   0  0  0  0  0  0  0  0  0  0  0  0
    3.2868    2.9374    0.0000 C   0  0  0  0  0  0  0  0  0  0  0  0
    2.7765    4.3479    0.0000 O   0  0  0  0  0  0  0  0  0  0  0  0
    4.6060    0.2521    0.0000 O   0  0  0  0  0  0  0  0  0  0  0  0
    6.1022    0.1447    0.0000 C   0  0  0  0  0  0  0  0  0  0  0  0
    6.9433    1.3866    0.0000 C   0  0  0  0  0  0  0  0  0  0  0  0
    6.2883    2.7361    0.0000 O   0  0  0  0  0  0  0  0  0  0  0  0
    6.7572   -1.2048    0.0000 C   0  0  0  0  0  0  0  0  0  0  0  0
    8.2533   -1.3122    0.0000 O   0  0  0  0  0  0  0  0  0  0  0  0
    5.9160   -2.4467    0.0000 C   0  0  0  0  0  0  0  0  0  0  0  0
    6.5710   -3.7962    0.0000 O   0  0  0  0  0  0  0  0  0  0  0  0
  1  2  1  0
  3  2  1  6
  3  4  1  0
  4  5  1  6
  6  5  1  1
  6  7  1  0
  7  8  1  6
  9  8  1  1
  9 10  1  0
 10 11  1  6
 10 12  1  0
 12 13  1  1
 12 14  1  0
 14 15  1  6
 15 16  1  0
 16 17  2  0
 16 18  1  0
 14 19  1  0
 19 20  1  1
 19 21  1  0
 21 22  1  6
 22 23  1  0
 23 24  2  0
 23 25  1  0
  7 26  1  0
 26 27  1  0
 27 28  1  1
 27 29  1  0
 29 30  1  1
 29 31  1  0
 31 32  2  0
  4 33  1  0
 33 34  1  0
 34 35  1  1
 35 36  1  0
 34 37  1  0
 37 38  1  6
 37 39  1  0
 39 40  1  1
 39  3  1  0
 29  6  1  0
 21  9  1  0
M  END
> <Identifier>
Drug_160

> <Carcinogen>
0

$$$$

     RDKit          2D

 30 35  0  0  0  0  0  0  0  0999 V2000
   -8.6996   -0.2886    0.0000 C   0  0  0  0  0  0  0  0  0  0  0  0
   -7.2129   -0.0892    0.0000 C   0  0  0  0  0  0  0  0  0  0  0  0
   -6.6422    1.2980    0.0000 C   0  0  0  0  0  0  0  0  0  0  0  0
   -5.1556    1.4974    0.0000 C   0  0  0  0  0  0  0  0  0  0  0  0
   -4.2395    0.3096    0.0000 C   0  0  0  0  0  0  0  0  0  0  0  0
   -4.8102   -1.0776    0.0000 N   0  0  0  0  0  0  0  0  0  0  0  0
   -6.2968   -1.2770    0.0000 C   0  0  0  0  0  0  0  0  0  0  0  0
   -3.5270    1.6296    0.0000 O   0  0  0  0  0  0  0  0  0  0  0  0
   -2.0515    1.3599    0.0000 C   0  0  0  0  0  0  0  0  0  0  0  0
   -0.6992    2.0089    0.0000 C   0  0  0  0  0  0  0  0  0  0  0  0
    0.3360    0.9234    0.0000 C   0  0  0  0  0  0  0  0  0  0  0  0
    1.8354    0.9663    0.0000 C   0  0  0  0  0  0  0  0  0  0  0  0
    2.5479    2.2863    0.0000 C   0  0  0  0  0  0  0  0  0  0  0  0
    4.0473    2.3292    0.0000 C   0  0  0  0  0  0  0  0  0  0  0  0
    4.8342    1.0522    0.0000 C   0  0  0  0  0  0  0  0  0  0  0  0
    6.3336    1.0951    0.0000 C   0  0  0  0  0  0  0  0  0  0  0  0
    7.1204   -0.1819    0.0000 C   0  0  0  0  0  0  0  0  0  0  0  0
    8.6198   -0.1390    0.0000 O   0  0  0  0  0  0  0  0  0  0  0  0
    6.4079   -1.5019    0.0000 C   0  0  0  0  0  0  0  0  0  0  0  0
    4.9085   -1.5448    0.0000 C   0  0  0  0  0  0  0  0  0  0  0  0
    4.1217   -0.2678    0.0000 C   0  0  0  0  0  0  0  0  0  0  0  0
    3.4092   -1.5877    0.0000 C   0  0  0  0  0  0  0  0  0  0  0  0
    2.6223   -0.3107    0.0000 C   0  0  0  0  0  0  0  0  0  0  0  0
    1.9098   -1.6307    0.0000 C   0  0  0  0  0  0  0  0  0  0  0  0
    0.4104   -1.6736    0.0000 C   0  0  0  0  0  0  0  0  0  0  0  0
   -0.3765   -0.3966    0.0000 C   0  0  0  0  0  0  0  0  0  0  0  0
   -1.2231   -1.6348    0.0000 C   0  0  0  0  0  0  0  0  0  0  0  0
   -1.8520   -0.1268    0.0000 C   0  0  0  0  0  0  0  0  0  0  0  0
   -3.2043   -0.7759    0.0000 C   0  0  0  0  0  0  0  0  0  0  0  0
   -3.4741   -2.2514    0.0000 C   0  0  0  0  0  0  0  0  0  0  0  0
  2  1  1  1
  2  3  1  0
  3  4  1  0
  5  4  1  6
  5  6  1  0
  6  7  1  0
  5  8  1  0
  8  9  1  0
  9 10  1  1
 11 10  1  1
 11 12  1  0
 12 13  1  6
 13 14  1  0
 15 14  1  1
 15 16  1  0
 16 17  1  0
 17 18  1  1
 17 19  1  0
 19 20  1  0
 20 21  1  0
 21 22  1  1
 21 23  1  0
 23 24  1  1
 24 25  1  0
 25 26  1  0
 26 27  1  1
 26 28  1  0
 28 29  1  0
 29 30  1  6
  7  2  1  0
 28  9  1  1
 29  5  1  0
 26 11  1  0
 23 12  1  0
 21 15  1  0
M  END
> <Identifier>
Drug_161

> <Carcinogen>
0

$$$$

     RDKit          2D

 14 15  0  0  0  0  0  0  0  0999 V2000
    0.6365   -0.3967    0.0000 C   0  0  0  0  0  0  0  0  0  0  0  0
   -0.6365    0.3967    0.0000 C   0  0  0  0  0  0  0  0  0  0  0  0
   -1.9095    1.1902    0.0000 C   0  0  0  0  0  0  0  0  0  0  0  0
   -3.2331    0.4845    0.0000 N   0  0  0  0  0  0  0  0  0  0  0  0
   -3.4402   -1.0012    0.0000 C   0  0  0  0  0  0  0  0  0  0  0  0
   -4.9171   -1.2633    0.0000 C   0  0  0  0  0  0  0  0  0  0  0  0
   -5.6228    0.0603    0.0000 C   0  0  0  0  0  0  0  0  0  0  0  0
   -4.5820    1.1405    0.0000 C   0  0  0  0  0  0  0  0  0  0  0  0
    1.9095   -1.1902    0.0000 C   0  0  0  0  0  0  0  0  0  0  0  0
    3.2331   -0.4845    0.0000 N   0  0  0  0  0  0  0  0  0  0  0  0
    3.4402    1.0012    0.0000 C   0  0  0  0  0  0  0  0  0  0  0  0
    4.9171    1.2633    0.0000 C   0  0  0  0  0  0  0  0  0  0  0  0
    5.6228   -0.0603    0.0000 C   0  0  0  0  0  0  0  0  0  0  0  0
    4.5820   -1.1405    0.0000 C   0  0  0  0  0  0  0  0  0  0  0  0
  1  2  3  0
  2  3  1  0
  3  4  1  0
  4  5  1  0
  5  6  1  0
  6  7  1  0
  7  8  1  0
  1  9  1  0
  9 10  1  0
 10 11  1  0
 11 12  1  0
 12 13  1  0
 13 14  1  0
  8  4  1  0
 14 10  1  0
M  END
> <Identifier>
Drug_162

> <Carcinogen>
0

$$$$

     RDKit          2D

 25 29  0  0  0  0  0  0  0  0999 V2000
   -1.8710   -2.7904    0.0000 O   0  0  0  0  0  0  0  0  0  0  0  0
   -3.2770   -2.2675    0.0000 C   0  0  0  0  0  0  0  0  0  0  0  0
   -4.4327   -3.2237    0.0000 O   0  0  0  0  0  0  0  0  0  0  0  0
   -3.5272   -0.7886    0.0000 C   0  0  0  0  0  0  0  0  0  0  0  0
   -4.9331   -0.2657    0.0000 C   0  0  0  0  0  0  0  0  0  0  0  0
   -6.0889   -1.2219    0.0000 O   0  0  0  0  0  0  0  0  0  0  0  0
   -5.1833    1.2132    0.0000 C   0  0  0  0  0  0  0  0  0  0  0  0
   -4.0276    2.1694    0.0000 C   0  0  0  0  0  0  0  0  0  0  0  0
   -2.6216    1.6466    0.0000 C   0  0  0  0  0  0  0  0  0  0  0  0
   -1.4659    2.6028    0.0000 C   0  0  0  0  0  0  0  0  0  0  0  0
   -0.0600    2.0800    0.0000 N   0  0  0  0  0  0  0  0  0  0  0  0
    1.0958    3.0361    0.0000 C   0  0  0  0  0  0  0  0  0  0  0  0
    2.5017    2.5133    0.0000 C   0  0  0  0  0  0  0  0  0  0  0  0
    2.7519    1.0343    0.0000 C   0  0  0  0  0  0  0  0  0  0  0  0
    1.5962    0.0782    0.0000 C   0  0  0  0  0  0  0  0  0  0  0  0
    2.1484   -1.3165    0.0000 N   0  0  0  0  0  0  0  0  0  0  0  0
    3.6454   -1.2223    0.0000 C   0  0  0  0  0  0  0  0  0  0  0  0
    4.7172   -2.2717    0.0000 C   0  0  0  0  0  0  0  0  0  0  0  0
    6.1619   -1.8683    0.0000 C   0  0  0  0  0  0  0  0  0  0  0  0
    6.5349   -0.4154    0.0000 C   0  0  0  0  0  0  0  0  0  0  0  0
    5.4632    0.6341    0.0000 C   0  0  0  0  0  0  0  0  0  0  0  0
    4.0184    0.2306    0.0000 C   0  0  0  0  0  0  0  0  0  0  0  0
    0.1902    0.6010    0.0000 C   0  0  0  0  0  0  0  0  0  0  0  0
   -0.9655   -0.3552    0.0000 C   0  0  0  0  0  0  0  0  0  0  0  0
   -2.3714    0.1676    0.0000 C   0  0  0  0  0  0  0  0  0  0  0  0
  1  2  2  0
  2  3  1  0
  4  2  1  1
  4  5  1  0
  5  6  1  1
  5  7  1  0
  7  8  1  0
  9  8  1  1
  9 10  1  0
 10 11  1  0
 11 12  1  0
 12 13  1  0
 13 14  1  0
 14 15  2  0
 15 16  1  0
 16 17  1  0
 17 18  2  0
 18 19  1  0
 19 20  2  0
 20 21  1  0
 21 22  2  0
 15 23  1  0
 23 24  1  6
 25 24  1  6
 25  4  1  0
 25  9  1  0
 23 11  1  0
 22 14  1  0
 22 17  1  0
M  END
> <Identifier>
Drug_163

> <Carcinogen>
0

$$$$

     RDKit          2D

 22 25  0  0  0  0  0  0  0  0999 V2000
   -6.6299    0.3635    0.0000 C   0  0  0  0  0  0  0  0  0  0  0  0
   -5.5697   -0.6976    0.0000 C   0  0  0  0  0  0  0  0  0  0  0  0
   -4.1206   -0.3100    0.0000 C   0  0  0  0  0  0  0  0  0  0  0  0
   -3.0604   -1.3711    0.0000 C   0  0  0  0  0  0  0  0  0  0  0  0
   -1.6114   -0.9835    0.0000 N   0  0  0  0  0  0  0  0  0  0  0  0
   -1.2225    0.4652    0.0000 C   0  0  0  0  0  0  0  0  0  0  0  0
   -2.2827    1.5263    0.0000 C   0  0  0  0  0  0  0  0  0  0  0  0
   -3.7318    1.1387    0.0000 C   0  0  0  0  0  0  0  0  0  0  0  0
   -3.1152    0.5930    0.0000 C   0  0  0  0  0  0  0  0  0  0  0  0
   -2.1566   -0.3665    0.0000 C   0  0  0  0  0  0  0  0  0  0  0  0
    0.2265    0.8528    0.0000 C   0  0  0  0  0  0  0  0  0  0  0  0
    0.6154    2.3015    0.0000 O   0  0  0  0  0  0  0  0  0  0  0  0
    1.2867   -0.2083    0.0000 C   0  0  0  0  0  0  0  0  0  0  0  0
    0.8979   -1.6570    0.0000 C   0  0  0  0  0  0  0  0  0  0  0  0
    1.9581   -2.7181    0.0000 C   0  0  0  0  0  0  0  0  0  0  0  0
    3.4071   -2.3305    0.0000 N   0  0  0  0  0  0  0  0  0  0  0  0
    3.7960   -0.8818    0.0000 C   0  0  0  0  0  0  0  0  0  0  0  0
    5.2451   -0.4942    0.0000 C   0  0  0  0  0  0  0  0  0  0  0  0
    5.6339    0.9545    0.0000 C   0  0  0  0  0  0  0  0  0  0  0  0
    4.5737    2.0156    0.0000 C   0  0  0  0  0  0  0  0  0  0  0  0
    3.1246    1.6280    0.0000 C   0  0  0  0  0  0  0  0  0  0  0  0
    2.7358    0.1793    0.0000 C   0  0  0  0  0  0  0  0  0  0  0  0
  1  2  2  0
  3  2  1  6
  3  4  1  0
  4  5  1  0
  5  6  1  0
  6  7  1  0
  8  7  1  1
  8  9  1  0
 10  9  1  6
 10 11  1  0
 11 12  1  1
 11 13  1  0
 13 14  2  0
 14 15  1  0
 15 16  2  0
 16 17  1  0
 17 18  2  0
 18 19  1  0
 19 20  2  0
 20 21  1  0
 21 22  2  0
  8  3  1  0
 22 13  1  0
 10  5  1  0
 22 17  1  0
M  END
> <Identifier>
Drug_164

> <Carcinogen>
0

$$$$

     RDKit          2D

 15 16  0  0  0  0  0  0  0  0999 V2000
   -3.2188    2.2629    0.0000 C   0  0  0  0  0  0  0  0  0  0  0  0
   -3.3180    0.7662    0.0000 C   0  0  0  0  0  0  0  0  0  0  0  0
   -4.5872   -0.0333    0.0000 C   0  0  0  0  0  0  0  0  0  0  0  0
   -4.2190   -1.4874    0.0000 C   0  0  0  0  0  0  0  0  0  0  0  0
   -2.7223   -1.5866    0.0000 S   0  0  0  0  0  0  0  0  0  0  0  0
   -2.1655   -0.1938    0.0000 C   0  0  0  0  0  0  0  0  0  0  0  0
   -0.7113    0.1743    0.0000 C   0  0  0  0  0  0  0  0  0  0  0  0
    0.3345   -0.9009    0.0000 C   0  0  0  0  0  0  0  0  0  0  0  0
    1.7887   -0.5327    0.0000 C   0  0  0  0  0  0  0  0  0  0  0  0
    2.8346   -1.6079    0.0000 N   0  0  0  0  0  0  0  0  0  0  0  0
    4.2887   -1.2398    0.0000 C   0  0  0  0  0  0  0  0  0  0  0  0
    4.6969    0.2036    0.0000 C   0  0  0  0  0  0  0  0  0  0  0  0
    3.6510    1.2788    0.0000 C   0  0  0  0  0  0  0  0  0  0  0  0
    2.1969    0.9107    0.0000 N   0  0  0  0  0  0  0  0  0  0  0  0
    1.1510    1.9859    0.0000 C   0  0  0  0  0  0  0  0  0  0  0  0
  1  2  1  0
  2  3  1  0
  3  4  2  0
  4  5  1  0
  5  6  1  0
  6  7  1  0
  7  8  2  0
  8  9  1  0
  9 10  2  0
 10 11  1  0
 11 12  1  0
 12 13  1  0
 13 14  1  0
 14 15  1  0
  6  2  2  0
 14  9  1  0
M  END
> <Identifier>
Drug_165

> <Carcinogen>
0

$$$$

     RDKit          2D

 48 51  0  0  0  0  0  0  0  0999 V2000
    5.8105   -0.2850    0.0000 C   0  0  0  0  0  0  0  0  0  0  0  0
    4.3795    0.1648    0.0000 O   0  0  0  0  0  0  0  0  0  0  0  0
    4.0536    1.6290    0.0000 C   0  0  0  0  0  0  0  0  0  0  0  0
    2.6226    2.0787    0.0000 C   0  0  0  0  0  0  0  0  0  0  0  0
    2.2966    3.5429    0.0000 C   0  0  0  0  0  0  0  0  0  0  0  0
    0.8656    3.9927    0.0000 O   0  0  0  0  0  0  0  0  0  0  0  0
   -0.2394    2.9783    0.0000 C   0  0  0  0  0  0  0  0  0  0  0  0
   -1.4742    3.8299    0.0000 C   0  0  0  0  0  0  0  0  0  0  0  0
   -0.9188    5.2232    0.0000 C   0  0  0  0  0  0  0  0  0  0  0  0
   -2.9562    4.0613    0.0000 C   0  0  0  0  0  0  0  0  0  0  0  0
   -3.0604    5.5577    0.0000 O   0  0  0  0  0  0  0  0  0  0  0  0
   -4.3919    3.6269    0.0000 O   0  0  0  0  0  0  0  0  0  0  0  0
   -5.4969    2.6125    0.0000 C   0  0  0  0  0  0  0  0  0  0  0  0
   -6.7318    3.4641    0.0000 C   0  0  0  0  0  0  0  0  0  0  0  0
   -6.0524    1.2191    0.0000 C   0  0  0  0  0  0  0  0  0  0  0  0
   -7.5344    1.4506    0.0000 C   0  0  0  0  0  0  0  0  0  0  0  0
   -5.9483   -0.2773    0.0000 C   0  0  0  0  0  0  0  0  0  0  0  0
   -7.3840   -0.7117    0.0000 O   0  0  0  0  0  0  0  0  0  0  0  0
   -5.2052   -1.5803    0.0000 C   0  0  0  0  0  0  0  0  0  0  0  0
   -6.3102   -2.5947    0.0000 C   0  0  0  0  0  0  0  0  0  0  0  0
   -3.9704   -2.4319    0.0000 C   0  0  0  0  0  0  0  0  0  0  0  0
   -4.5259   -3.8252    0.0000 O   0  0  0  0  0  0  0  0  0  0  0  0
   -2.4884   -2.6633    0.0000 C   0  0  0  0  0  0  0  0  0  0  0  0
   -1.6500   -3.9072    0.0000 C   0  0  0  0  0  0  0  0  0  0  0  0
   -3.1464   -4.0113    0.0000 O   0  0  0  0  0  0  0  0  0  0  0  0
   -1.0527   -2.2289    0.0000 C   0  0  0  0  0  0  0  0  0  0  0  0
    0.0523   -1.2145    0.0000 C   0  0  0  0  0  0  0  0  0  0  0  0
    1.0444   -2.3396    0.0000 C   0  0  0  0  0  0  0  0  0  0  0  0
    0.6078    0.1789    0.0000 C   0  0  0  0  0  0  0  0  0  0  0  0
    2.0898   -0.0526    0.0000 O   0  0  0  0  0  0  0  0  0  0  0  0
    2.6304   -1.4518    0.0000 C   0  0  0  0  0  0  0  0  0  0  0  0
    4.1124   -1.6833    0.0000 O   0  0  0  0  0  0  0  0  0  0  0  0
    4.6530   -3.0825    0.0000 C   0  0  0  0  0  0  0  0  0  0  0  0
    6.1350   -3.3140    0.0000 C   0  0  0  0  0  0  0  0  0  0  0  0
    3.7115   -4.2502    0.0000 C   0  0  0  0  0  0  0  0  0  0  0  0
    2.2294   -4.0188    0.0000 C   0  0  0  0  0  0  0  0  0  0  0  0
    1.2880   -5.1865    0.0000 N   0  0  0  0  0  0  0  0  0  0  0  0
    1.8285   -6.5857    0.0000 C   0  0  0  0  0  0  0  0  0  0  0  0
   -0.1941   -4.9550    0.0000 C   0  0  0  0  0  0  0  0  0  0  0  0
    1.6889   -2.6195    0.0000 C   0  0  0  0  0  0  0  0  0  0  0  0
    0.2069   -2.3881    0.0000 O   0  0  0  0  0  0  0  0  0  0  0  0
    0.5037    1.6753    0.0000 C   0  0  0  0  0  0  0  0  0  0  0  0
    2.0018    1.7494    0.0000 C   0  0  0  0  0  0  0  0  0  0  0  0
    3.4016    4.5573    0.0000 O   0  0  0  0  0  0  0  0  0  0  0  0
    4.8326    4.1075    0.0000 C   0  0  0  0  0  0  0  0  0  0  0  0
    5.9376    5.1219    0.0000 C   0  0  0  0  0  0  0  0  0  0  0  0
    5.1586    2.6433    0.0000 C   0  0  0  0  0  0  0  0  0  0  0  0
    6.5895    2.1936    0.0000 O   0  0  0  0  0  0  0  0  0  0  0  0
  1  2  1  0
  3  2  1  1
  3  4  1  0
  4  5  1  0
  5  6  1  6
  7  6  1  1
  7  8  1  0
  8  9  1  6
  8 10  1  0
 10 11  2  0
 10 12  1  0
 12 13  1  0
 13 14  1  1
 13 15  1  0
 15 16  1  1
 15 17  1  0
 17 18  1  1
 17 19  1  0
 19 20  1  6
 19 21  1  0
 21 22  2  0
 21 23  1  0
 23 24  1  1
 24 25  1  0
 23 26  1  0
 26 27  1  0
 27 28  1  1
 27 29  1  0
 29 30  1  1
 31 30  1  6
 31 32  1  0
 32 33  1  0
 33 34  1  6
 33 35  1  0
 35 36  1  0
 36 37  1  6
 37 38  1  0
 37 39  1  0
 36 40  1  0
 40 41  1  1
 29 42  1  0
 42 43  1  6
  5 44  1  0
 44 45  1  0
 45 46  1  1
 45 47  1  0
 47 48  1  6
 47  3  1  0
 42  7  1  0
 25 23  1  0
 40 31  1  0
M  END
> <Identifier>
Drug_166

> <Carcinogen>
0

$$$$

     RDKit          2D

 42 45  0  0  0  0  0  0  0  0999 V2000
    5.9453    3.1697    0.0000 N   0  0  0  0  0  0  0  0  0  0  0  0
    7.2035    2.3531    0.0000 C   0  0  0  0  0  0  0  0  0  0  0  0
    7.1255    0.8551    0.0000 C   0  0  0  0  0  0  0  0  0  0  0  0
    5.7892    0.1737    0.0000 O   0  0  0  0  0  0  0  0  0  0  0  0
    5.7111   -1.3242    0.0000 C   0  0  0  0  0  0  0  0  0  0  0  0
    4.3748   -2.0056    0.0000 O   0  0  0  0  0  0  0  0  0  0  0  0
    3.1166   -1.1890    0.0000 C   0  0  0  0  0  0  0  0  0  0  0  0
    3.0376    0.3089    0.0000 C   0  0  0  0  0  0  0  0  0  0  0  0
    4.2031    1.2532    0.0000 C   0  0  0  0  0  0  0  0  0  0  0  0
    3.9680    2.7347    0.0000 O   0  0  0  0  0  0  0  0  0  0  0  0
    1.5886    0.6967    0.0000 O   0  0  0  0  0  0  0  0  0  0  0  0
    0.7720   -0.5616    0.0000 C   0  0  0  0  0  0  0  0  0  0  0  0
   -0.7259   -0.6405    0.0000 O   0  0  0  0  0  0  0  0  0  0  0  0
   -1.5432    0.6172    0.0000 C   0  0  0  0  0  0  0  0  0  0  0  0
   -0.8626    1.9539    0.0000 C   0  0  0  0  0  0  0  0  0  0  0  0
    0.6353    2.0329    0.0000 O   0  0  0  0  0  0  0  0  0  0  0  0
   -1.6800    3.2117    0.0000 C   0  0  0  0  0  0  0  0  0  0  0  0
   -0.9994    4.5484    0.0000 N   0  0  0  0  0  0  0  0  0  0  0  0
   -3.1779    3.1328    0.0000 C   0  0  0  0  0  0  0  0  0  0  0  0
   -3.8585    1.7960    0.0000 C   0  0  0  0  0  0  0  0  0  0  0  0
   -5.3564    1.7171    0.0000 N   0  0  0  0  0  0  0  0  0  0  0  0
   -3.0411    0.5383    0.0000 C   0  0  0  0  0  0  0  0  0  0  0  0
   -3.7217   -0.7984    0.0000 O   0  0  0  0  0  0  0  0  0  0  0  0
   -5.2196   -0.8774    0.0000 C   0  0  0  0  0  0  0  0  0  0  0  0
   -6.0370    0.3804    0.0000 O   0  0  0  0  0  0  0  0  0  0  0  0
   -7.5349    0.3014    0.0000 C   0  0  0  0  0  0  0  0  0  0  0  0
   -8.3522    1.5592    0.0000 C   0  0  0  0  0  0  0  0  0  0  0  0
   -9.8502    1.4802    0.0000 N   0  0  0  0  0  0  0  0  0  0  0  0
   -8.2155   -1.0353    0.0000 C   0  0  0  0  0  0  0  0  0  0  0  0
   -9.7134   -1.1143    0.0000 O   0  0  0  0  0  0  0  0  0  0  0  0
   -7.3982   -2.2931    0.0000 C   0  0  0  0  0  0  0  0  0  0  0  0
   -8.0787   -3.6298    0.0000 O   0  0  0  0  0  0  0  0  0  0  0  0
   -5.9002   -2.2141    0.0000 C   0  0  0  0  0  0  0  0  0  0  0  0
   -5.0829   -3.4719    0.0000 N   0  0  0  0  0  0  0  0  0  0  0  0
    1.7164   -1.7270    0.0000 C   0  0  0  0  0  0  0  0  0  0  0  0
    1.3286   -3.1760    0.0000 O   0  0  0  0  0  0  0  0  0  0  0  0
    6.9694   -2.1408    0.0000 C   0  0  0  0  0  0  0  0  0  0  0  0
    6.8913   -3.6388    0.0000 N   0  0  0  0  0  0  0  0  0  0  0  0
    8.3057   -1.4594    0.0000 C   0  0  0  0  0  0  0  0  0  0  0  0
    9.5639   -2.2760    0.0000 O   0  0  0  0  0  0  0  0  0  0  0  0
    8.3837    0.0386    0.0000 C   0  0  0  0  0  0  0  0  0  0  0  0
    9.7200    0.7199    0.0000 O   0  0  0  0  0  0  0  0  0  0  0  0
  1  2  1  0
  3  2  1  1
  3  4  1  0
  4  5  1  0
  5  6  1  1
  7  6  1  1
  7  8  1  0
  8  9  1  6
  9 10  1  0
  8 11  1  0
 11 12  1  0
 12 13  1  6
 14 13  1  1
 14 15  1  0
 15 16  1  6
 15 17  1  0
 17 18  1  1
 17 19  1  0
 19 20  1  0
 20 21  1  1
 20 22  1  0
 22 23  1  6
 24 23  1  6
 24 25  1  0
 25 26  1  0
 26 27  1  1
 27 28  1  0
 26 29  1  0
 29 30  1  6
 29 31  1  0
 31 32  1  1
 31 33  1  0
 33 34  1  6
 12 35  1  0
 35 36  1  1
  5 37  1  0
 37 38  1  1
 37 39  1  0
 39 40  1  6
 39 41  1  0
 41 42  1  1
 41  3  1  0
 35  7  1  0
 22 14  1  0
 33 24  1  0
M  END
> <Identifier>
Drug_167

> <Carcinogen>
0

$$$$

     RDKit          2D

 57 59  0  0  0  0  0  0  0  0999 V2000
  -10.9313   -4.0302    0.0000 C   0  0  0  0  0  0  0  0  0  0  0  0
  -10.8312   -2.5335    0.0000 C   0  0  0  0  0  0  0  0  0  0  0  0
   -9.4850   -1.8719    0.0000 C   0  0  0  0  0  0  0  0  0  0  0  0
   -8.2389   -2.7069    0.0000 O   0  0  0  0  0  0  0  0  0  0  0  0
   -9.3849   -0.3752    0.0000 O   0  0  0  0  0  0  0  0  0  0  0  0
   -8.0387    0.2864    0.0000 C   0  0  0  0  0  0  0  0  0  0  0  0
   -6.7926   -0.5486    0.0000 C   0  0  0  0  0  0  0  0  0  0  0  0
   -6.8927   -2.0453    0.0000 C   0  0  0  0  0  0  0  0  0  0  0  0
   -5.4465    0.1130    0.0000 O   0  0  0  0  0  0  0  0  0  0  0  0
   -5.3464    1.6097    0.0000 C   0  0  0  0  0  0  0  0  0  0  0  0
   -4.0002    2.2713    0.0000 O   0  0  0  0  0  0  0  0  0  0  0  0
   -2.7541    1.4363    0.0000 C   0  0  0  0  0  0  0  0  0  0  0  0
   -1.4079    2.0979    0.0000 C   0  0  0  0  0  0  0  0  0  0  0  0
   -1.3078    3.5946    0.0000 C   0  0  0  0  0  0  0  0  0  0  0  0
   -0.1618    1.2629    0.0000 O   0  0  0  0  0  0  0  0  0  0  0  0
   -0.2619   -0.2337    0.0000 C   0  0  0  0  0  0  0  0  0  0  0  0
    0.9842   -1.0687    0.0000 O   0  0  0  0  0  0  0  0  0  0  0  0
    2.3304   -0.4071    0.0000 C   0  0  0  0  0  0  0  0  0  0  0  0
    3.2420   -1.5984    0.0000 C   0  0  0  0  0  0  0  0  0  0  0  0
    2.2514   -2.7248    0.0000 O   0  0  0  0  0  0  0  0  0  0  0  0
    0.7807   -2.4302    0.0000 C   0  0  0  0  0  0  0  0  0  0  0  0
    4.5400   -2.3501    0.0000 C   0  0  0  0  0  0  0  0  0  0  0  0
    4.0559   -3.7698    0.0000 O   0  0  0  0  0  0  0  0  0  0  0  0
    5.0435   -4.8989    0.0000 C   0  0  0  0  0  0  0  0  0  0  0  0
    6.5150   -4.6082    0.0000 O   0  0  0  0  0  0  0  0  0  0  0  0
    4.5594   -6.3187    0.0000 C   0  0  0  0  0  0  0  0  0  0  0  0
    5.5469   -7.4477    0.0000 C   0  0  0  0  0  0  0  0  0  0  0  0
    6.0269   -2.5479    0.0000 C   0  0  0  0  0  0  0  0  0  0  0  0
    7.4763   -2.1616    0.0000 C   0  0  0  0  0  0  0  0  0  0  0  0
    8.1379   -3.5077    0.0000 O   0  0  0  0  0  0  0  0  0  0  0  0
    8.6676   -1.2500    0.0000 O   0  0  0  0  0  0  0  0  0  0  0  0
    9.4193    0.0480    0.0000 C   0  0  0  0  0  0  0  0  0  0  0  0
   10.8390   -0.4360    0.0000 C   0  0  0  0  0  0  0  0  0  0  0  0
    9.6171    1.5349    0.0000 C   0  0  0  0  0  0  0  0  0  0  0  0
    8.7055    2.7262    0.0000 C   0  0  0  0  0  0  0  0  0  0  0  0
    8.3192    4.1756    0.0000 C   0  0  0  0  0  0  0  0  0  0  0  0
    6.8323    4.3734    0.0000 C   0  0  0  0  0  0  0  0  0  0  0  0
    5.5343    5.1251    0.0000 C   0  0  0  0  0  0  0  0  0  0  0  0
    4.0848    4.7388    0.0000 C   0  0  0  0  0  0  0  0  0  0  0  0
    3.4232    6.0850    0.0000 O   0  0  0  0  0  0  0  0  0  0  0  0
    2.8936    3.8272    0.0000 C   0  0  0  0  0  0  0  0  0  0  0  0
    1.7672    4.8178    0.0000 C   0  0  0  0  0  0  0  0  0  0  0  0
    2.1419    2.5292    0.0000 C   0  0  0  0  0  0  0  0  0  0  0  0
    1.9441    1.0423    0.0000 C   0  0  0  0  0  0  0  0  0  0  0  0
    0.4472    0.9462    0.0000 C   0  0  0  0  0  0  0  0  0  0  0  0
   -0.3845    2.1945    0.0000 C   0  0  0  0  0  0  0  0  0  0  0  0
   -1.8602    2.4635    0.0000 O   0  0  0  0  0  0  0  0  0  0  0  0
   -1.6081   -0.8954    0.0000 C   0  0  0  0  0  0  0  0  0  0  0  0
   -1.7082   -2.3920    0.0000 O   0  0  0  0  0  0  0  0  0  0  0  0
   -2.8542   -0.0604    0.0000 C   0  0  0  0  0  0  0  0  0  0  0  0
   -4.2004   -0.7220    0.0000 N   0  0  0  0  0  0  0  0  0  0  0  0
   -4.3005   -2.2187    0.0000 C   0  0  0  0  0  0  0  0  0  0  0  0
   -5.6115   -0.2133    0.0000 C   0  0  0  0  0  0  0  0  0  0  0  0
   -6.5924    2.4447    0.0000 C   0  0  0  0  0  0  0  0  0  0  0  0
   -7.9386    1.7830    0.0000 C   0  0  0  0  0  0  0  0  0  0  0  0
   -8.3565    3.2237    0.0000 C   0  0  0  0  0  0  0  0  0  0  0  0
   -9.4299    1.6217    0.0000 O   0  0  0  0  0  0  0  0  0  0  0  0
  1  2  1  0
  2  3  1  0
  3  4  2  0
  3  5  1  0
  6  5  1  6
  6  7  1  0
  7  8  1  1
  7  9  1  0
  9 10  1  0
 10 11  1  6
 12 11  1  6
 12 13  1  0
 13 14  1  1
 13 15  1  0
 15 16  1  0
 16 17  1  6
 18 17  1  1
 18 19  1  0
 19 20  1  6
 20 21  1  0
 19 22  1  0
 22 23  1  1
 23 24  1  0
 24 25  2  0
 24 26  1  0
 26 27  1  0
 22 28  1  0
 28 29  1  0
 29 30  2  0
 29 31  1  0
 31 32  1  0
 32 33  1  1
 32 34  1  0
 34 35  1  0
 35 36  2  0
 36 37  1  0
 37 38  2  0
 38 39  1  0
 39 40  1  6
 39 41  1  0
 41 42  1  1
 41 43  1  0
 43 44  1  0
 44 45  1  1
 45 46  1  0
 46 47  2  0
 16 48  1  0
 48 49  1  6
 48 50  1  0
 50 51  1  1
 51 52  1  0
 51 53  1  0
 10 54  1  0
 54 55  1  0
 55 56  1  1
 55 57  1  0
 55  6  1  0
 50 12  1  0
 44 18  1  0
M  END
> <Identifier>
Drug_168

> <Carcinogen>
0

$$$$

     RDKit          2D

 61 69  0  0  0  0  0  0  0  0999 V2000
  -12.2631   -4.9485    0.0000 C   0  0  0  0  0  0  0  0  0  0  0  0
  -11.6919   -3.5615    0.0000 C   0  0  0  0  0  0  0  0  0  0  0  0
  -12.6075   -2.3734    0.0000 C   0  0  0  0  0  0  0  0  0  0  0  0
  -12.0364   -0.9864    0.0000 C   0  0  0  0  0  0  0  0  0  0  0  0
  -10.5496   -0.7875    0.0000 C   0  0  0  0  0  0  0  0  0  0  0  0
   -9.7025    0.4505    0.0000 C   0  0  0  0  0  0  0  0  0  0  0  0
  -10.2062    1.8634    0.0000 C   0  0  0  0  0  0  0  0  0  0  0  0
   -8.2634    0.0274    0.0000 C   0  0  0  0  0  0  0  0  0  0  0  0
   -8.2211   -1.4720    0.0000 C   0  0  0  0  0  0  0  0  0  0  0  0
   -6.7820   -1.8950    0.0000 C   0  0  0  0  0  0  0  0  0  0  0  0
   -5.9349   -0.6571    0.0000 C   0  0  0  0  0  0  0  0  0  0  0  0
   -4.4481   -0.4582    0.0000 C   0  0  0  0  0  0  0  0  0  0  0  0
   -3.5325   -1.6464    0.0000 C   0  0  0  0  0  0  0  0  0  0  0  0
   -2.0458   -1.4475    0.0000 C   0  0  0  0  0  0  0  0  0  0  0  0
   -1.4746   -0.0605    0.0000 C   0  0  0  0  0  0  0  0  0  0  0  0
    0.0121    0.1383    0.0000 C   0  0  0  0  0  0  0  0  0  0  0  0
    0.5833    1.5253    0.0000 C   0  0  0  0  0  0  0  0  0  0  0  0
    2.0700    1.7242    0.0000 O   0  0  0  0  0  0  0  0  0  0  0  0
    2.9856    0.5361    0.0000 C   0  0  0  0  0  0  0  0  0  0  0  0
    2.4145   -0.8509    0.0000 O   0  0  0  0  0  0  0  0  0  0  0  0
    3.3301   -2.0391    0.0000 C   0  0  0  0  0  0  0  0  0  0  0  0
    2.7589   -3.4261    0.0000 C   0  0  0  0  0  0  0  0  0  0  0  0
    1.2722   -3.6249    0.0000 O   0  0  0  0  0  0  0  0  0  0  0  0
    4.8168   -1.8402    0.0000 C   0  0  0  0  0  0  0  0  0  0  0  0
    5.7324   -3.0284    0.0000 O   0  0  0  0  0  0  0  0  0  0  0  0
    5.3880   -0.4532    0.0000 C   0  0  0  0  0  0  0  0  0  0  0  0
    6.8748   -0.2543    0.0000 O   0  0  0  0  0  0  0  0  0  0  0  0
    7.7904   -1.4425    0.0000 C   0  0  0  0  0  0  0  0  0  0  0  0
    7.2192   -2.8295    0.0000 O   0  0  0  0  0  0  0  0  0  0  0  0
    8.1348   -4.0176    0.0000 C   0  0  0  0  0  0  0  0  0  0  0  0
    7.5636   -5.4046    0.0000 C   0  0  0  0  0  0  0  0  0  0  0  0
    6.0769   -5.6035    0.0000 O   0  0  0  0  0  0  0  0  0  0  0  0
    9.6216   -3.8188    0.0000 C   0  0  0  0  0  0  0  0  0  0  0  0
   10.5372   -5.0069    0.0000 O   0  0  0  0  0  0  0  0  0  0  0  0
   10.1927   -2.4318    0.0000 C   0  0  0  0  0  0  0  0  0  0  0  0
   11.6795   -2.2329    0.0000 O   0  0  0  0  0  0  0  0  0  0  0  0
    9.2771   -1.2436    0.0000 C   0  0  0  0  0  0  0  0  0  0  0  0
    9.8483    0.1434    0.0000 O   0  0  0  0  0  0  0  0  0  0  0  0
    4.4724    0.7349    0.0000 C   0  0  0  0  0  0  0  0  0  0  0  0
    5.0436    2.1219    0.0000 O   0  0  0  0  0  0  0  0  0  0  0  0
    4.1280    3.3101    0.0000 C   0  0  0  0  0  0  0  0  0  0  0  0
    2.6412    3.1112    0.0000 O   0  0  0  0  0  0  0  0  0  0  0  0
    1.7256    4.2994    0.0000 C   0  0  0  0  0  0  0  0  0  0  0  0
    0.2388    4.1005    0.0000 C   0  0  0  0  0  0  0  0  0  0  0  0
    2.2968    5.6864    0.0000 C   0  0  0  0  0  0  0  0  0  0  0  0
    1.3812    6.8745    0.0000 O   0  0  0  0  0  0  0  0  0  0  0  0
    3.7835    5.8852    0.0000 C   0  0  0  0  0  0  0  0  0  0  0  0
    4.3547    7.2722    0.0000 O   0  0  0  0  0  0  0  0  0  0  0  0
    4.6991    4.6971    0.0000 C   0  0  0  0  0  0  0  0  0  0  0  0
    6.1859    4.8959    0.0000 O   0  0  0  0  0  0  0  0  0  0  0  0
   -0.3323    2.7135    0.0000 C   0  0  0  0  0  0  0  0  0  0  0  0
   -1.8191    2.5146    0.0000 C   0  0  0  0  0  0  0  0  0  0  0  0
   -2.3902    1.1276    0.0000 C   0  0  0  0  0  0  0  0  0  0  0  0
   -3.3058    2.3158    0.0000 C   0  0  0  0  0  0  0  0  0  0  0  0
   -3.8770    0.9288    0.0000 C   0  0  0  0  0  0  0  0  0  0  0  0
   -4.7926    2.1169    0.0000 C   0  0  0  0  0  0  0  0  0  0  0  0
   -6.2793    1.9180    0.0000 C   0  0  0  0  0  0  0  0  0  0  0  0
   -6.8505    0.5310    0.0000 C   0  0  0  0  0  0  0  0  0  0  0  0
   -7.8853    1.6170    0.0000 C   0  0  0  0  0  0  0  0  0  0  0  0
   -9.6340   -1.9756    0.0000 N   0  0  0  0  0  0  0  0  0  0  0  0
  -10.2052   -3.3626    0.0000 C   0  0  0  0  0  0  0  0  0  0  0  0
  2  1  1  1
  2  3  1  0
  3  4  1  0
  5  4  1  6
  5  6  1  0
  6  7  1  1
  6  8  1  0
  8  9  1  6
  9 10  1  6
 11 10  1  6
 11 12  1  0
 12 13  1  1
 13 14  1  0
 14 15  2  0
 15 16  1  0
 16 17  1  0
 17 18  1  6
 19 18  1  1
 19 20  1  0
 20 21  1  0
 21 22  1  1
 22 23  1  0
 21 24  1  0
 24 25  1  1
 24 26  1  0
 26 27  1  1
 28 27  1  1
 28 29  1  0
 29 30  1  0
 30 31  1  1
 31 32  1  0
 30 33  1  0
 33 34  1  6
 33 35  1  0
 35 36  1  1
 35 37  1  0
 37 38  1  6
 26 39  1  0
 39 40  1  6
 41 40  1  6
 41 42  1  0
 42 43  1  0
 43 44  1  1
 43 45  1  0
 45 46  1  6
 45 47  1  0
 47 48  1  1
 47 49  1  0
 49 50  1  1
 17 51  1  0
 51 52  1  0
 52 53  1  0
 53 54  1  6
 53 55  1  0
 55 56  1  6
 56 57  1  0
 57 58  1  0
 58 59  1  6
  9 60  1  0
 60 61  1  0
 61  2  1  0
 60  5  1  0
 58  8  1  0
 58 11  1  0
 55 12  1  0
 53 15  1  0
 39 19  1  0
 49 41  1  0
 37 28  1  0
M  END
> <Identifier>
Drug_169

> <Carcinogen>
0

$$$$

     RDKit          2D

 23 26  0  0  0  0  0  0  0  0999 V2000
   -2.4354    0.7274    0.0000 C   0  0  0  0  0  0  0  0  0  0  0  0
   -2.9513    0.1197    0.0000 N   0  0  0  0  0  4  0  0  0  0  0  0
   -1.4605   -0.0455    0.0000 O   0  0  0  0  0  1  0  0  0  0  0  0
   -4.2188    0.9219    0.0000 C   0  0  0  0  0  0  0  0  0  0  0  0
   -2.8880    1.6347    0.0000 C   0  0  0  0  0  0  0  0  0  0  0  0
   -1.7113    0.7045    0.0000 C   0  0  0  0  0  0  0  0  0  0  0  0
   -0.3173    1.2584    0.0000 O   0  0  0  0  0  0  0  0  0  0  0  0
    0.8594    0.3282    0.0000 C   0  0  0  0  0  0  0  0  0  0  0  0
    0.6421   -1.1560    0.0000 O   0  0  0  0  0  0  0  0  0  0  0  0
    2.2533    0.8821    0.0000 C   0  0  0  0  0  0  0  0  0  0  0  0
    2.4706    2.3663    0.0000 C   0  0  0  0  0  0  0  0  0  0  0  0
    3.8646    2.9202    0.0000 O   0  0  0  0  0  0  0  0  0  0  0  0
    3.4300   -0.0482    0.0000 C   0  0  0  0  0  0  0  0  0  0  0  0
    3.2128   -1.5324    0.0000 C   0  0  0  0  0  0  0  0  0  0  0  0
    4.3895   -2.4626    0.0000 C   0  0  0  0  0  0  0  0  0  0  0  0
    5.7834   -1.9087    0.0000 C   0  0  0  0  0  0  0  0  0  0  0  0
    6.0007   -0.4245    0.0000 C   0  0  0  0  0  0  0  0  0  0  0  0
    4.8240    0.5057    0.0000 C   0  0  0  0  0  0  0  0  0  0  0  0
   -1.9286   -0.7797    0.0000 C   0  0  0  0  0  0  0  0  0  0  0  0
   -3.3226   -1.3336    0.0000 C   0  0  0  0  0  0  0  0  0  0  0  0
   -4.8195   -1.4297    0.0000 C   0  0  0  0  0  0  0  0  0  0  0  0
   -6.3037   -1.2124    0.0000 O   0  0  0  0  0  0  0  0  0  0  0  0
   -5.3734   -0.0357    0.0000 C   0  0  0  0  0  0  0  0  0  0  0  0
  1  2  1  0
  2  3  1  0
  2  4  1  0
  4  5  1  6
  5  6  1  0
  6  7  1  6
  7  8  1  0
  8  9  2  0
  8 10  1  0
 10 11  1  6
 11 12  1  0
 10 13  1  0
 13 14  2  0
 14 15  1  0
 15 16  2  0
 16 17  1  0
 17 18  2  0
  6 19  1  0
 20 19  1  6
 20 21  1  0
 21 22  1  1
 23 22  1  1
 20  2  1  0
 23 21  1  0
 23  4  1  0
 18 13  1  0
M  CHG  2   2   1   3  -1
M  END
> <Identifier>
Drug_170

> <Carcinogen>
0

$$$$

     RDKit          2D

 46 51  0  0  0  0  0  0  0  0999 V2000
    2.4987   -6.0198    0.0000 C   0  0  0  0  0  0  0  0  0  0  0  0
    1.6493   -4.7834    0.0000 O   0  0  0  0  0  0  0  0  0  0  0  0
    2.2953   -3.4297    0.0000 C   0  0  0  0  0  0  0  0  0  0  0  0
    3.7907   -3.3122    0.0000 O   0  0  0  0  0  0  0  0  0  0  0  0
    1.4459   -2.1933    0.0000 C   0  0  0  0  0  0  0  0  0  0  0  0
    2.0919   -0.8395    0.0000 C   0  0  0  0  0  0  0  0  0  0  0  0
    3.5873   -0.7221    0.0000 C   0  0  0  0  0  0  0  0  0  0  0  0
    4.2333    0.6316    0.0000 C   0  0  0  0  0  0  0  0  0  0  0  0
    5.7287    0.7491    0.0000 C   0  0  0  0  0  0  0  0  0  0  0  0
    6.8166   -0.2836    0.0000 N   0  0  0  0  0  0  0  0  0  0  0  0
    8.1349    0.4319    0.0000 C   0  0  0  0  0  0  0  0  0  0  0  0
    9.5488   -0.0691    0.0000 C   0  0  0  0  0  0  0  0  0  0  0  0
   10.6896    0.9049    0.0000 C   0  0  0  0  0  0  0  0  0  0  0  0
   12.1034    0.4039    0.0000 O   0  0  0  0  0  0  0  0  0  0  0  0
   12.3765   -1.0710    0.0000 C   0  0  0  0  0  0  0  0  0  0  0  0
   10.4165    2.3798    0.0000 C   0  0  0  0  0  0  0  0  0  0  0  0
    9.0026    2.8808    0.0000 C   0  0  0  0  0  0  0  0  0  0  0  0
    7.8618    1.9068    0.0000 C   0  0  0  0  0  0  0  0  0  0  0  0
    6.3747    2.1028    0.0000 C   0  0  0  0  0  0  0  0  0  0  0  0
    5.5253    3.3392    0.0000 C   0  0  0  0  0  0  0  0  0  0  0  0
    4.0299    3.2217    0.0000 C   0  0  0  0  0  0  0  0  0  0  0  0
    3.3839    1.8680    0.0000 N   0  0  0  0  0  0  0  0  0  0  0  0
    1.8885    1.7506    0.0000 C   0  0  0  0  0  0  0  0  0  0  0  0
    1.2425    0.3968    0.0000 C   0  0  0  0  0  0  0  0  0  0  0  0
   -0.2529    0.2794    0.0000 C   0  0  0  0  0  0  0  0  0  0  0  0
   -0.8989   -1.0744    0.0000 C   0  0  0  0  0  0  0  0  0  0  0  0
   -2.3943   -1.1918    0.0000 O   0  0  0  0  0  0  0  0  0  0  0  0
   -3.2437    0.0445    0.0000 C   0  0  0  0  0  0  0  0  0  0  0  0
   -2.5977    1.3983    0.0000 O   0  0  0  0  0  0  0  0  0  0  0  0
   -4.7391   -0.0729    0.0000 C   0  0  0  0  0  0  0  0  0  0  0  0
   -5.5885    1.1634    0.0000 C   0  0  0  0  0  0  0  0  0  0  0  0
   -7.0839    1.0460    0.0000 C   0  0  0  0  0  0  0  0  0  0  0  0
   -7.9333    2.2823    0.0000 C   0  0  0  0  0  0  0  0  0  0  0  0
   -9.4287    2.1649    0.0000 C   0  0  0  0  0  0  0  0  0  0  0  0
  -10.2781    3.4012    0.0000 O   0  0  0  0  0  0  0  0  0  0  0  0
   -9.6321    4.7550    0.0000 C   0  0  0  0  0  0  0  0  0  0  0  0
  -10.0747    0.8111    0.0000 C   0  0  0  0  0  0  0  0  0  0  0  0
  -11.5701    0.6937    0.0000 O   0  0  0  0  0  0  0  0  0  0  0  0
  -12.2161   -0.6601    0.0000 C   0  0  0  0  0  0  0  0  0  0  0  0
   -9.2253   -0.4252    0.0000 C   0  0  0  0  0  0  0  0  0  0  0  0
   -9.8713   -1.7790    0.0000 O   0  0  0  0  0  0  0  0  0  0  0  0
   -9.0219   -3.0153    0.0000 C   0  0  0  0  0  0  0  0  0  0  0  0
   -7.7299   -0.3078    0.0000 C   0  0  0  0  0  0  0  0  0  0  0  0
   -0.0495   -2.3107    0.0000 C   0  0  0  0  0  0  0  0  0  0  0  0
   -0.6955   -3.6645    0.0000 O   0  0  0  0  0  0  0  0  0  0  0  0
   -2.1909   -3.7819    0.0000 C   0  0  0  0  0  0  0  0  0  0  0  0
  1  2  1  0
  2  3  1  0
  3  4  2  0
  5  3  1  6
  5  6  1  0
  6  7  1  6
  8  7  1  1
  8  9  1  0
  9 10  1  0
 10 11  1  0
 11 12  2  0
 12 13  1  0
 13 14  1  0
 14 15  1  0
 13 16  2  0
 16 17  1  0
 17 18  2  0
 18 19  1  0
 19 20  1  0
 20 21  1  0
 21 22  1  0
 22 23  1  0
 24 23  1  6
 24 25  1  0
 25 26  1  0
 26 27  1  6
 27 28  1  0
 28 29  2  0
 28 30  1  0
 30 31  2  0
 31 32  1  0
 32 33  2  0
 33 34  1  0
 34 35  1  0
 35 36  1  0
 34 37  2  0
 37 38  1  0
 38 39  1  0
 37 40  1  0
 40 41  1  0
 41 42  1  0
 40 43  2  0
 26 44  1  0
 44 45  1  1
 45 46  1  0
 44  5  1  0
 24  6  1  0
 43 32  1  0
 22  8  1  0
 19  9  2  0
 18 11  1  0
M  END
> <Identifier>
Drug_171

> <Carcinogen>
0

$$$$

     RDKit          2D

 24 24  0  0  0  0  0  0  0  0999 V2000
   -1.5510    3.2567    0.0000 O   0  0  0  0  0  0  0  0  0  0  0  0
   -2.8028    2.4302    0.0000 C   0  0  0  0  0  0  0  0  0  0  0  0
   -4.1444    3.1011    0.0000 O   0  0  0  0  0  0  0  0  0  0  0  0
   -2.7130    0.9329    0.0000 C   0  0  0  0  0  0  0  0  0  0  0  0
   -3.9647    0.1065    0.0000 O   0  0  0  0  0  0  0  0  0  0  0  0
   -1.3713    0.2621    0.0000 C   0  0  0  0  0  0  0  0  0  0  0  0
   -0.1195    1.0885    0.0000 O   0  0  0  0  0  0  0  0  0  0  0  0
   -1.2815   -1.2352    0.0000 C   0  0  0  0  0  0  0  0  0  0  0  0
    0.0601   -1.9061    0.0000 O   0  0  0  0  0  0  0  0  0  0  0  0
    1.3119   -1.0796    0.0000 C   0  0  0  0  0  0  0  0  0  0  0  0
    1.2221    0.4177    0.0000 O   0  0  0  0  0  0  0  0  0  0  0  0
    2.4739    1.2442    0.0000 C   0  0  0  0  0  0  0  0  0  0  0  0
    2.3840    2.7415    0.0000 C   0  0  0  0  0  0  0  0  0  0  0  0
    1.0424    3.4123    0.0000 O   0  0  0  0  0  0  0  0  0  0  0  0
    3.8155    0.5733    0.0000 C   0  0  0  0  0  0  0  0  0  0  0  0
    5.0673    1.3998    0.0000 O   0  0  0  0  0  0  0  0  0  0  0  0
    3.9053   -0.9240    0.0000 C   0  0  0  0  0  0  0  0  0  0  0  0
    5.2470   -1.5948    0.0000 O   0  0  0  0  0  0  0  0  0  0  0  0
    2.6536   -1.7505    0.0000 C   0  0  0  0  0  0  0  0  0  0  0  0
    2.7434   -3.2478    0.0000 O   0  0  0  0  0  0  0  0  0  0  0  0
   -2.5333   -2.0617    0.0000 C   0  0  0  0  0  0  0  0  0  0  0  0
   -2.4434   -3.5590    0.0000 O   0  0  0  0  0  0  0  0  0  0  0  0
   -3.8749   -1.3908    0.0000 C   0  0  0  0  0  0  0  0  0  0  0  0
   -5.1267   -2.2173    0.0000 O   0  0  0  0  0  0  0  0  0  0  0  0
  1  2  2  0
  2  3  1  0
  2  4  1  0
  4  5  1  1
  4  6  1  0
  6  7  1  1
  6  8  1  0
  8  9  1  6
 10  9  1  6
 10 11  1  0
 11 12  1  0
 12 13  1  6
 13 14  1  0
 12 15  1  0
 15 16  1  6
 15 17  1  0
 17 18  1  6
 17 19  1  0
 19 20  1  1
  8 21  1  0
 21 22  1  6
 21 23  1  0
 23 24  1  0
 19 10  1  0
M  END
> <Identifier>
Drug_172

> <Carcinogen>
0

$$$$

     RDKit          2D

 25 27  0  0  0  0  0  0  0  0999 V2000
    0.0775    5.1777    0.0000 C   0  0  0  0  0  0  0  0  0  0  0  0
    1.1398    4.1187    0.0000 C   0  0  0  0  0  0  0  0  0  0  0  0
    0.7538    2.6692    0.0000 C   0  0  0  0  0  0  0  0  0  0  0  0
    2.0540    1.9213    0.0000 C   0  0  0  0  0  0  0  0  0  0  0  0
    2.8061    0.6234    0.0000 C   0  0  0  0  0  0  0  0  0  0  0  0
    4.2543    1.0139    0.0000 C   0  0  0  0  0  0  0  0  0  0  0  0
    2.8084   -0.8766    0.0000 C   0  0  0  0  0  0  0  0  0  0  0  0
    3.7744   -2.0242    0.0000 O   0  0  0  0  0  0  0  0  0  0  0  0
    4.2171   -0.3614    0.0000 C   0  0  0  0  0  0  0  0  0  0  0  0
    5.3677   -1.3238    0.0000 O   0  0  0  0  0  0  0  0  0  0  0  0
    2.0604   -2.1768    0.0000 C   0  0  0  0  0  0  0  0  0  0  0  0
    3.1227   -3.2358    0.0000 O   0  0  0  0  0  0  0  0  0  0  0  0
    0.7626   -2.9288    0.0000 O   0  0  0  0  0  0  0  0  0  0  0  0
   -0.7374   -2.9312    0.0000 C   0  0  0  0  0  0  0  0  0  0  0  0
   -2.0376   -2.1832    0.0000 C   0  0  0  0  0  0  0  0  0  0  0  0
   -3.0396   -3.2995    0.0000 C   0  0  0  0  0  0  0  0  0  0  0  0
   -4.4109   -2.6915    0.0000 C   0  0  0  0  0  0  0  0  0  0  0  0
   -4.2564   -1.1995    0.0000 N   0  0  0  0  0  0  0  0  0  0  0  0
   -5.0753    0.0572    0.0000 C   0  0  0  0  0  0  0  0  0  0  0  0
   -4.1332    1.2244    0.0000 C   0  0  0  0  0  0  0  0  0  0  0  0
   -2.7920    0.6147    0.0000 C   0  0  0  0  0  0  0  0  0  0  0  0
   -2.0440    1.9149    0.0000 O   0  0  0  0  0  0  0  0  0  0  0  0
   -0.7462    2.6669    0.0000 C   0  0  0  0  0  0  0  0  0  0  0  0
   -1.1367    4.1152    0.0000 O   0  0  0  0  0  0  0  0  0  0  0  0
   -2.7897   -0.8853    0.0000 C   0  0  0  0  0  0  0  0  0  0  0  0
  1  2  1  0
  2  3  2  0
  3  4  1  0
  4  5  1  0
  5  6  1  1
  5  7  1  0
  7  8  1  1
  7  9  1  0
  9 10  1  0
  7 11  1  0
 11 12  2  0
 11 13  1  0
 13 14  1  0
 14 15  1  0
 15 16  2  0
 16 17  1  0
 17 18  1  0
 18 19  1  0
 19 20  1  0
 21 20  1  1
 21 22  1  0
 22 23  1  0
 23 24  2  0
 21 25  1  0
 23  3  1  0
 25 15  1  0
 25 18  1  1
M  END
> <Identifier>
Drug_173

> <Carcinogen>
0

$$$$

     RDKit          2D

 13 14  0  0  0  0  0  0  0  0999 V2000
   -2.1688   -2.4900    0.0000 C   0  0  0  0  0  0  0  0  0  0  0  0
   -1.9587   -1.0048    0.0000 C   0  0  0  0  0  0  0  0  0  0  0  0
   -3.1399   -0.0803    0.0000 N   0  0  0  0  0  0  0  0  0  0  0  0
   -2.9298    1.4050    0.0000 C   0  0  0  0  0  0  0  0  0  0  0  0
   -1.5385    1.9656    0.0000 C   0  0  0  0  0  0  0  0  0  0  0  0
   -0.3573    1.0411    0.0000 C   0  0  0  0  0  0  0  0  0  0  0  0
    1.0339    1.6017    0.0000 C   0  0  0  0  0  0  0  0  0  0  0  0
    2.2151    0.6772    0.0000 C   0  0  0  0  0  0  0  0  0  0  0  0
    3.6064    1.2379    0.0000 O   0  0  0  0  0  0  0  0  0  0  0  0
    2.0050   -0.8080    0.0000 C   0  0  0  0  0  0  0  0  0  0  0  0
    3.1862   -1.7326    0.0000 O   0  0  0  0  0  0  0  0  0  0  0  0
    0.6138   -1.3687    0.0000 C   0  0  0  0  0  0  0  0  0  0  0  0
   -0.5674   -0.4441    0.0000 C   0  0  0  0  0  0  0  0  0  0  0  0
  2  1  1  6
  2  3  1  0
  3  4  1  0
  4  5  1  0
  5  6  1  0
  6  7  2  0
  7  8  1  0
  8  9  1  0
  8 10  2  0
 10 11  1  0
 10 12  1  0
 12 13  2  0
 13  2  1  0
 13  6  1  0
M  END
> <Identifier>
Drug_174

> <Carcinogen>
0

$$$$

     RDKit          2D

 12 13  0  0  0  0  0  0  0  0999 V2000
   -3.6663    1.3735    0.0000 N   0  0  0  0  0  0  0  0  0  0  0  0
   -2.1699    1.4772    0.0000 N   0  0  0  0  0  0  0  0  0  0  0  0
   -1.3318    0.2332    0.0000 C   0  0  0  0  0  0  0  0  0  0  0  0
   -1.9902   -1.1146    0.0000 N   0  0  0  0  0  0  0  0  0  0  0  0
   -1.1521   -2.3587    0.0000 N   0  0  0  0  0  0  0  0  0  0  0  0
    0.3443   -2.2549    0.0000 C   0  0  0  0  0  0  0  0  0  0  0  0
    1.0027   -0.9071    0.0000 C   0  0  0  0  0  0  0  0  0  0  0  0
    2.4991   -0.8033    0.0000 C   0  0  0  0  0  0  0  0  0  0  0  0
    3.1574    0.5445    0.0000 C   0  0  0  0  0  0  0  0  0  0  0  0
    2.3193    1.7885    0.0000 C   0  0  0  0  0  0  0  0  0  0  0  0
    0.8229    1.6848    0.0000 C   0  0  0  0  0  0  0  0  0  0  0  0
    0.1646    0.3370    0.0000 C   0  0  0  0  0  0  0  0  0  0  0  0
  1  2  1  0
  2  3  2  0
  3  4  1  0
  4  5  2  0
  5  6  1  0
  6  7  2  0
  7  8  1  0
  8  9  2  0
  9 10  1  0
 10 11  2  0
 11 12  1  0
 12  3  1  0
 12  7  1  0
M  END
> <Identifier>
Drug_175

> <Carcinogen>
0

$$$$

     RDKit          2D

 56 62  0  0  0  0  0  0  0  0999 V2000
    0.2865    6.9031    0.0000 C   0  0  0  0  0  0  0  0  0  0  0  0
    0.8045    5.4954    0.0000 C   0  0  0  0  0  0  0  0  0  0  0  0
    2.2827    5.2401    0.0000 C   0  0  0  0  0  0  0  0  0  0  0  0
    3.2428    6.3926    0.0000 C   0  0  0  0  0  0  0  0  0  0  0  0
    2.8007    3.8324    0.0000 C   0  0  0  0  0  0  0  0  0  0  0  0
    4.2788    3.5772    0.0000 O   0  0  0  0  0  0  0  0  0  0  0  0
    1.8405    2.6800    0.0000 O   0  0  0  0  0  0  0  0  0  0  0  0
    2.3585    1.2722    0.0000 C   0  0  0  0  0  0  0  0  0  0  0  0
    3.8367    1.0170    0.0000 C   0  0  0  0  0  0  0  0  0  0  0  0
    4.7968    2.1695    0.0000 O   0  0  0  0  0  0  0  0  0  0  0  0
    4.3547   -0.3907    0.0000 C   0  0  0  0  0  0  0  0  0  0  0  0
    3.3945   -1.5432    0.0000 C   0  0  0  0  0  0  0  0  0  0  0  0
    3.9125   -2.9509    0.0000 C   0  0  0  0  0  0  0  0  0  0  0  0
    5.3907   -3.2062    0.0000 N   0  0  0  0  0  0  0  0  0  0  0  0
    5.9087   -4.6139    0.0000 C   0  0  0  0  0  0  0  0  0  0  0  0
    7.3868   -4.8691    0.0000 C   0  0  0  0  0  0  0  0  0  0  0  0
    7.9048   -6.2769    0.0000 C   0  0  0  0  0  0  0  0  0  0  0  0
    8.3469   -3.7167    0.0000 C   0  0  0  0  0  0  0  0  0  0  0  0
    7.8289   -2.3090    0.0000 C   0  0  0  0  0  0  0  0  0  0  0  0
    6.3508   -2.0537    0.0000 C   0  0  0  0  0  0  0  0  0  0  0  0
    5.8328   -0.6460    0.0000 C   0  0  0  0  0  0  0  0  0  0  0  0
    5.8275    0.8540    0.0000 C   0  0  0  0  0  0  0  0  0  0  0  0
    7.3091   -0.3803    0.0000 O   0  0  0  0  0  0  0  0  0  0  0  0
    1.9164   -1.2879    0.0000 C   0  0  0  0  0  0  0  0  0  0  0  0
    0.7377   -2.2156    0.0000 C   0  0  0  0  0  0  0  0  0  0  0  0
   -0.5088   -1.3812    0.0000 C   0  0  0  0  0  0  0  0  0  0  0  0
   -1.6425   -0.3990    0.0000 O   0  0  0  0  0  0  0  0  0  0  0  0
   -4.4629   -1.0419    0.0000 C   0  0  0  0  0  0  0  0  0  0  0  0
   -5.5087    0.0334    0.0000 O   0  0  0  0  0  0  0  0  0  0  0  0
   -4.8713   -2.4852    0.0000 C   0  0  0  0  0  0  0  0  0  0  0  0
   -6.3255   -2.8533    0.0000 O   0  0  0  0  0  0  0  0  0  0  0  0
   -7.3712   -1.7779    0.0000 C   0  0  0  0  0  0  0  0  0  0  0  0
   -6.9629   -0.3346    0.0000 O   0  0  0  0  0  0  0  0  0  0  0  0
   -8.8254   -2.1460    0.0000 C   0  0  0  0  0  0  0  0  0  0  0  0
   -8.4574   -3.6001    0.0000 C   0  0  0  0  0  0  0  0  0  0  0  0
  -10.2795   -2.5140    0.0000 O   0  0  0  0  0  0  0  0  0  0  0  0
   -9.1934   -0.6918    0.0000 C   0  0  0  0  0  0  0  0  0  0  0  0
  -10.6368   -0.2834    0.0000 C   0  0  0  0  0  0  0  0  0  0  0  0
   -3.8255   -3.5606    0.0000 C   0  0  0  0  0  0  0  0  0  0  0  0
   -2.3714   -3.1926    0.0000 C   0  0  0  0  0  0  0  0  0  0  0  0
   -1.9630   -1.7492    0.0000 C   0  0  0  0  0  0  0  0  0  0  0  0
   -0.9172   -2.8245    0.0000 C   0  0  0  0  0  0  0  0  0  0  0  0
   -3.0088   -0.6739    0.0000 C   0  0  0  0  0  0  0  0  0  0  0  0
   -2.6004    0.7695    0.0000 C   0  0  0  0  0  0  0  0  0  0  0  0
   -3.6462    1.8448    0.0000 O   0  0  0  0  0  0  0  0  0  0  0  0
   -3.2378    3.2881    0.0000 C   0  0  0  0  0  0  0  0  0  0  0  0
   -4.2836    4.3634    0.0000 C   0  0  0  0  0  0  0  0  0  0  0  0
   -1.7837    3.6561    0.0000 O   0  0  0  0  0  0  0  0  0  0  0  0
   -1.1463    1.1375    0.0000 C   0  0  0  0  0  0  0  0  0  0  0  0
   -0.7379    2.5808    0.0000 O   0  0  0  0  0  0  0  0  0  0  0  0
    0.7163    2.9488    0.0000 C   0  0  0  0  0  0  0  0  0  0  0  0
    1.7620    1.8735    0.0000 C   0  0  0  0  0  0  0  0  0  0  0  0
    1.1246    4.3922    0.0000 O   0  0  0  0  0  0  0  0  0  0  0  0
   -0.1005    0.0621    0.0000 C   0  0  0  0  0  0  0  0  0  0  0  0
    1.3984    0.1198    0.0000 C   0  0  0  0  0  0  0  0  0  0  0  0
    0.7361    1.4656    0.0000 O   0  0  0  0  0  0  0  0  0  0  0  0
  1  2  1  0
  2  3  1  0
  3  4  1  1
  3  5  1  0
  5  6  2  0
  5  7  1  0
  8  7  1  1
  8  9  1  0
  9 10  1  6
  9 11  1  0
 11 12  1  6
 12 13  1  1
 13 14  1  0
 14 15  1  0
 15 16  1  0
 16 17  1  6
 16 18  1  0
 18 19  1  0
 20 19  1  6
 20 21  1  0
 21 22  1  1
 21 23  1  0
 12 24  1  0
 24 25  1  0
 26 25  1  1
 26 27  1  0
 27 28  1  0
 28 29  1  6
 28 30  1  0
 30 31  1  6
 31 32  1  0
 32 33  2  0
 32 34  1  0
 34 35  1  1
 34 36  1  0
 34 37  1  0
 37 38  1  0
 30 39  1  0
 39 40  1  0
 40 41  1  0
 41 42  1  6
 41 43  1  0
 43 44  1  1
 44 45  1  1
 45 46  1  0
 46 47  1  0
 46 48  2  0
 44 49  1  0
 49 50  1  1
 50 51  1  0
 51 52  1  0
 51 53  2  0
 54 49  1  1
 54 55  1  0
 55 56  1  1
 55  8  1  0
 21 11  1  0
 55 24  1  0
 20 14  1  0
 41 26  1  0
 54 26  1  0
 43 28  1  0
M  END
> <Identifier>
Drug_176

> <Carcinogen>
0

$$$$

     RDKit          2D

 20 22  0  0  0  0  0  0  0  0999 V2000
   -5.1344   -0.9559    0.0000 C   0  0  0  0  0  0  0  0  0  0  0  0
   -4.5478    0.4246    0.0000 C   0  0  0  0  0  0  0  0  0  0  0  0
   -3.0590    0.6070    0.0000 C   0  0  0  0  0  0  0  0  0  0  0  0
   -2.1566   -0.5913    0.0000 C   0  0  0  0  0  0  0  0  0  0  0  0
   -0.6677   -0.4090    0.0000 C   0  0  0  0  0  0  0  0  0  0  0  0
    0.2346   -1.6072    0.0000 C   0  0  0  0  0  0  0  0  0  0  0  0
    1.7235   -1.4249    0.0000 C   0  0  0  0  0  0  0  0  0  0  0  0
    2.6258   -2.6231    0.0000 C   0  0  0  0  0  0  0  0  0  0  0  0
    4.1147   -2.4408    0.0000 C   0  0  0  0  0  0  0  0  0  0  0  0
    4.7012   -1.0602    0.0000 C   0  0  0  0  0  0  0  0  0  0  0  0
    3.7989    0.1380    0.0000 C   0  0  0  0  0  0  0  0  0  0  0  0
    2.3100   -0.0443    0.0000 N   0  0  0  0  0  0  0  0  0  0  0  0
   -0.0812    0.9716    0.0000 C   0  0  0  0  0  0  0  0  0  0  0  0
    1.4077    1.1539    0.0000 C   0  0  0  0  0  0  0  0  0  0  0  0
    1.9942    2.5345    0.0000 C   0  0  0  0  0  0  0  0  0  0  0  0
    1.0919    3.7328    0.0000 C   0  0  0  0  0  0  0  0  0  0  0  0
   -0.3970    3.5504    0.0000 C   0  0  0  0  0  0  0  0  0  0  0  0
   -0.9835    2.1699    0.0000 C   0  0  0  0  0  0  0  0  0  0  0  0
   -2.7432   -1.9719    0.0000 C   0  0  0  0  0  0  0  0  0  0  0  0
   -4.2320   -2.1542    0.0000 C   0  0  0  0  0  0  0  0  0  0  0  0
  1  2  1  0
  2  3  1  0
  3  4  1  0
  4  5  1  0
  5  6  1  0
  6  7  1  0
  7  8  1  0
  8  9  1  0
  9 10  1  0
 10 11  1  0
 11 12  1  0
  5 13  1  0
 13 14  1  0
 14 15  1  0
 15 16  1  0
 16 17  1  0
 17 18  1  0
  4 19  1  0
 19 20  1  0
 20  1  1  0
 12  7  1  0
 18 13  1  0
M  END
> <Identifier>
Drug_177

> <Carcinogen>
0

$$$$

     RDKit          2D

 29 34  0  0  0  0  0  0  0  0999 V2000
    4.8454   -1.9435    0.0000 C   0  0  0  0  0  0  0  0  0  0  0  0
    4.2626   -0.5614    0.0000 C   0  0  0  0  0  0  0  0  0  0  0  0
    5.0383    0.7225    0.0000 C   0  0  0  0  0  0  0  0  0  0  0  0
    6.5329    0.8497    0.0000 O   0  0  0  0  0  0  0  0  0  0  0  0
    4.0569    1.8570    0.0000 O   0  0  0  0  0  0  0  0  0  0  0  0
    2.6747    1.2742    0.0000 C   0  0  0  0  0  0  0  0  0  0  0  0
    1.2140    1.6151    0.0000 C   0  0  0  0  0  0  0  0  0  0  0  0
    0.4383    0.3313    0.0000 C   0  0  0  0  0  0  0  0  0  0  0  0
    0.3112    1.8259    0.0000 C   0  0  0  0  0  0  0  0  0  0  0  0
   -1.1495    2.1668    0.0000 C   0  0  0  0  0  0  0  0  0  0  0  0
   -1.9252    0.8829    0.0000 C   0  0  0  0  0  0  0  0  0  0  0  0
   -3.4198    0.7558    0.0000 C   0  0  0  0  0  0  0  0  0  0  0  0
   -3.5469    2.2504    0.0000 C   0  0  0  0  0  0  0  0  0  0  0  0
   -3.6343   -0.5771    0.0000 C   0  0  0  0  0  0  0  0  0  0  0  0
   -4.9144    0.6287    0.0000 C   0  0  0  0  0  0  0  0  0  0  0  0
   -0.9438   -0.2515    0.0000 C   0  0  0  0  0  0  0  0  0  0  0  0
   -0.8167   -1.7461    0.0000 C   0  0  0  0  0  0  0  0  0  0  0  0
   -2.1989   -2.3289    0.0000 O   0  0  0  0  0  0  0  0  0  0  0  0
   -3.1802   -1.1945    0.0000 C   0  0  0  0  0  0  0  0  0  0  0  0
   -4.6748   -1.3216    0.0000 O   0  0  0  0  0  0  0  0  0  0  0  0
   -2.4046    0.0894    0.0000 C   0  0  0  0  0  0  0  0  0  0  0  0
   -2.9873    1.4716    0.0000 O   0  0  0  0  0  0  0  0  0  0  0  0
    0.6440   -2.0871    0.0000 O   0  0  0  0  0  0  0  0  0  0  0  0
    1.4197   -0.8032    0.0000 C   0  0  0  0  0  0  0  0  0  0  0  0
   -0.0749   -0.9303    0.0000 C   0  0  0  0  0  0  0  0  0  0  0  0
   -0.6400   -1.4926    0.0000 O   0  0  0  0  0  0  0  0  0  0  0  0
   -0.6577    0.4519    0.0000 O   0  0  0  0  0  0  0  0  0  0  0  0
    2.8019   -0.2204    0.0000 C   0  0  0  0  0  0  0  0  0  0  0  0
    2.9290   -1.7150    0.0000 O   0  0  0  0  0  0  0  0  0  0  0  0
  2  1  1  1
  2  3  1  0
  3  4  2  0
  3  5  1  0
  5  6  1  0
  6  7  1  6
  7  8  1  0
  8  9  1  0
  9 10  1  6
 10 11  1  0
 11 12  1  6
 12 13  1  0
 12 14  1  0
 12 15  1  0
 11 16  1  0
 16 17  1  0
 17 18  1  6
 18 19  1  0
 19 20  2  0
 19 21  1  0
 21 22  1  6
 17 23  1  0
 24 23  1  6
 24 25  1  0
 25 26  2  0
 25 27  1  0
 24 28  1  0
 28 29  1  1
 28  2  1  0
 28  6  1  0
 16  8  1  6
 24  8  1  0
 27  9  1  0
 21 16  1  0
M  END
> <Identifier>
Drug_178

> <Carcinogen>
0

$$$$

     RDKit          2D

 30 33  0  0  0  0  0  0  0  0999 V2000
   -8.6582    1.0101    0.0000 C   0  0  0  0  0  0  0  0  0  0  0  0
   -7.1709    1.2047    0.0000 C   0  0  0  0  0  0  0  0  0  0  0  0
   -6.5957    2.5901    0.0000 O   0  0  0  0  0  0  0  0  0  0  0  0
   -6.2587    0.0139    0.0000 O   0  0  0  0  0  0  0  0  0  0  0  0
   -4.7713    0.2085    0.0000 C   0  0  0  0  0  0  0  0  0  0  0  0
   -3.8592   -0.9822    0.0000 C   0  0  0  0  0  0  0  0  0  0  0  0
   -4.4343   -2.3676    0.0000 O   0  0  0  0  0  0  0  0  0  0  0  0
   -2.3718   -0.7876    0.0000 C   0  0  0  0  0  0  0  0  0  0  0  0
   -2.8961    0.6178    0.0000 O   0  0  0  0  0  0  0  0  0  0  0  0
   -2.3338   -2.2872    0.0000 C   0  0  0  0  0  0  0  0  0  0  0  0
   -0.8959   -2.7143    0.0000 C   0  0  0  0  0  0  0  0  0  0  0  0
   -0.0453   -1.4788    0.0000 C   0  0  0  0  0  0  0  0  0  0  0  0
    1.4420   -1.2842    0.0000 C   0  0  0  0  0  0  0  0  0  0  0  0
    2.3542   -2.4750    0.0000 C   0  0  0  0  0  0  0  0  0  0  0  0
    3.8415   -2.2804    0.0000 C   0  0  0  0  0  0  0  0  0  0  0  0
    4.4167   -0.8950    0.0000 C   0  0  0  0  0  0  0  0  0  0  0  0
    5.9040   -0.7004    0.0000 C   0  0  0  0  0  0  0  0  0  0  0  0
    6.4791    0.6849    0.0000 C   0  0  0  0  0  0  0  0  0  0  0  0
    7.9665    0.8795    0.0000 O   0  0  0  0  0  0  0  0  0  0  0  0
    5.5670    1.8757    0.0000 C   0  0  0  0  0  0  0  0  0  0  0  0
    4.0796    1.6811    0.0000 C   0  0  0  0  0  0  0  0  0  0  0  0
    3.5045    0.2957    0.0000 C   0  0  0  0  0  0  0  0  0  0  0  0
    2.5923    1.4865    0.0000 C   0  0  0  0  0  0  0  0  0  0  0  0
    2.0172    0.1011    0.0000 C   0  0  0  0  0  0  0  0  0  0  0  0
    0.5298   -0.0935    0.0000 F   0  0  0  0  0  0  0  0  0  0  0  0
    1.1050    1.2919    0.0000 C   0  0  0  0  0  0  0  0  0  0  0  0
    1.6801    2.6772    0.0000 O   0  0  0  0  0  0  0  0  0  0  0  0
   -0.3823    1.0973    0.0000 C   0  0  0  0  0  0  0  0  0  0  0  0
   -0.9575   -0.2881    0.0000 C   0  0  0  0  0  0  0  0  0  0  0  0
   -1.8487    0.9185    0.0000 C   0  0  0  0  0  0  0  0  0  0  0  0
  1  2  1  0
  2  3  2  0
  2  4  1  0
  4  5  1  0
  5  6  1  0
  6  7  2  0
  6  8  1  0
  8  9  1  1
  8 10  1  0
 10 11  1  0
 12 11  1  6
 12 13  1  0
 13 14  1  1
 14 15  1  0
 15 16  1  0
 16 17  2  0
 17 18  1  0
 18 19  2  0
 18 20  1  0
 20 21  1  0
 21 22  1  0
 22 23  1  6
 22 24  1  0
 24 25  1  0
 24 26  1  0
 26 27  2  0
 26 28  1  0
 28 29  1  0
 29 30  1  6
 29  8  1  0
 29 12  1  0
 24 13  1  0
 22 16  1  0
M  END
> <Identifier>
Drug_179

> <Carcinogen>
0

$$$$

     RDKit          2D

 20 22  0  0  0  0  0  0  0  0999 V2000
    3.9627    4.3858    0.0000 C   0  0  0  0  0  0  0  0  0  0  0  0
    2.8081    3.4282    0.0000 C   0  0  0  0  0  0  0  0  0  0  0  0
    3.0601    1.9495    0.0000 C   0  0  0  0  0  0  0  0  0  0  0  0
    1.9056    0.9920    0.0000 O   0  0  0  0  0  0  0  0  0  0  0  0
    2.1575   -0.4867    0.0000 C   0  0  0  0  0  0  0  0  0  0  0  0
    3.5641   -1.0078    0.0000 C   0  0  0  0  0  0  0  0  0  0  0  0
    3.8161   -2.4865    0.0000 C   0  0  0  0  0  0  0  0  0  0  0  0
    2.6615   -3.4441    0.0000 C   0  0  0  0  0  0  0  0  0  0  0  0
    1.2550   -2.9230    0.0000 C   0  0  0  0  0  0  0  0  0  0  0  0
    1.0030   -1.4443    0.0000 C   0  0  0  0  0  0  0  0  0  0  0  0
   -0.4036   -0.9232    0.0000 C   0  0  0  0  0  0  0  0  0  0  0  0
   -1.5582   -1.8807    0.0000 N   0  0  0  0  0  0  0  0  0  0  0  0
   -2.9648   -1.3596    0.0000 C   0  0  0  0  0  0  0  0  0  0  0  0
   -4.1193   -2.3172    0.0000 O   0  0  0  0  0  0  0  0  0  0  0  0
   -3.2168    0.1191    0.0000 C   0  0  0  0  0  0  0  0  0  0  0  0
   -4.4842    0.9212    0.0000 N   0  0  0  0  0  0  0  0  0  0  0  0
   -4.1130    2.3746    0.0000 N   0  0  0  0  0  0  0  0  0  0  0  0
   -2.6161    2.4706    0.0000 N   0  0  0  0  0  0  0  0  0  0  0  0
   -2.0622    1.0766    0.0000 C   0  0  0  0  0  0  0  0  0  0  0  0
   -0.6556    0.5555    0.0000 N   0  0  0  0  0  0  0  0  0  0  0  0
  1  2  1  0
  2  3  1  0
  3  4  1  0
  4  5  1  0
  5  6  2  0
  6  7  1  0
  7  8  2  0
  8  9  1  0
  9 10  2  0
 10 11  1  0
 11 12  2  0
 12 13  1  0
 13 14  2  0
 13 15  1  0
 15 16  1  0
 16 17  1  0
 17 18  2  0
 18 19  1  0
 19 20  1  0
 10  5  1  0
 20 11  1  0
 19 15  2  0
M  END
> <Identifier>
Drug_180

> <Carcinogen>
0

$$$$

     RDKit          2D

 21 24  0  0  0  0  0  0  0  0999 V2000
    5.8571    0.0000    0.0000 C   0  0  0  0  0  0  0  0  0  0  0  0
    4.3571   -0.0000    0.0000 N   0  0  0  0  0  0  0  0  0  0  0  0
    3.6071   -1.2990    0.0000 C   0  0  0  0  0  0  0  0  0  0  0  0
    2.1071   -1.2990    0.0000 C   0  0  0  0  0  0  0  0  0  0  0  0
    1.3571   -0.0000    0.0000 C   0  0  0  0  0  0  0  0  0  0  0  0
   -0.1429   -0.0000    0.0000 C   0  0  0  0  0  0  0  0  0  0  0  0
   -0.8929    1.2990    0.0000 C   0  0  0  0  0  0  0  0  0  0  0  0
   -0.1429    2.5981    0.0000 C   0  0  0  0  0  0  0  0  0  0  0  0
   -0.8929    3.8971    0.0000 C   0  0  0  0  0  0  0  0  0  0  0  0
   -2.3929    3.8971    0.0000 C   0  0  0  0  0  0  0  0  0  0  0  0
   -3.1429    2.5981    0.0000 C   0  0  0  0  0  0  0  0  0  0  0  0
   -2.3929    1.2990    0.0000 C   0  0  0  0  0  0  0  0  0  0  0  0
   -3.1429   -0.0000    0.0000 S   0  0  0  0  0  0  0  0  0  0  0  0
   -2.3929   -1.2990    0.0000 C   0  0  0  0  0  0  0  0  0  0  0  0
   -3.1429   -2.5981    0.0000 C   0  0  0  0  0  0  0  0  0  0  0  0
   -2.3929   -3.8971    0.0000 C   0  0  0  0  0  0  0  0  0  0  0  0
   -0.8929   -3.8971    0.0000 C   0  0  0  0  0  0  0  0  0  0  0  0
   -0.1429   -2.5981    0.0000 C   0  0  0  0  0  0  0  0  0  0  0  0
   -0.8929   -1.2990    0.0000 C   0  0  0  0  0  0  0  0  0  0  0  0
    2.1071    1.2990    0.0000 C   0  0  0  0  0  0  0  0  0  0  0  0
    3.6071    1.2990    0.0000 C   0  0  0  0  0  0  0  0  0  0  0  0
  1  2  1  0
  2  3  1  0
  3  4  1  0
  4  5  1  0
  5  6  2  0
  6  7  1  0
  7  8  2  0
  8  9  1  0
  9 10  2  0
 10 11  1  0
 11 12  2  0
 12 13  1  0
 13 14  1  0
 14 15  2  0
 15 16  1  0
 16 17  2  0
 17 18  1  0
 18 19  2  0
  5 20  1  0
 20 21  1  0
 21  2  1  0
 19  6  1  0
 12  7  1  0
 19 14  1  0
M  END
> <Identifier>
Drug_181

> <Carcinogen>
0

$$$$

     RDKit          2D

 16 16  0  0  0  0  0  0  0  0999 V2000
   -0.6259   -1.8189    0.0000 N   0  0  0  0  0  0  0  0  0  0  0  0
   -1.6571   -0.7296    0.0000 C   0  0  0  0  0  0  0  0  0  0  0  0
   -3.1161   -1.0779    0.0000 C   0  0  0  0  0  0  0  0  0  0  0  0
   -3.5439   -2.5156    0.0000 O   0  0  0  0  0  0  0  0  0  0  0  0
   -4.1473    0.0114    0.0000 C   0  0  0  0  0  0  0  0  0  0  0  0
   -3.7195    1.4491    0.0000 C   0  0  0  0  0  0  0  0  0  0  0  0
   -2.2605    1.7975    0.0000 C   0  0  0  0  0  0  0  0  0  0  0  0
   -1.2293    0.7081    0.0000 C   0  0  0  0  0  0  0  0  0  0  0  0
    0.2297    1.0565    0.0000 C   0  0  0  0  0  0  0  0  0  0  0  0
    0.6575    2.4942    0.0000 O   0  0  0  0  0  0  0  0  0  0  0  0
    1.2608   -0.0328    0.0000 C   0  0  0  0  0  0  0  0  0  0  0  0
    2.7198    0.3155    0.0000 C   0  0  0  0  0  0  0  0  0  0  0  0
    3.1476    1.7532    0.0000 N   0  0  0  0  0  0  0  0  0  0  0  0
    3.7510   -0.7738    0.0000 C   0  0  0  0  0  0  0  0  0  0  0  0
    3.3232   -2.2115    0.0000 O   0  0  0  0  0  0  0  0  0  0  0  0
    5.2100   -0.4254    0.0000 O   0  0  0  0  0  0  0  0  0  0  0  0
  1  2  1  0
  2  3  2  0
  3  4  1  0
  3  5  1  0
  5  6  2  0
  6  7  1  0
  7  8  2  0
  8  9  1  0
  9 10  2  0
  9 11  1  0
 11 12  1  0
 12 13  1  0
 12 14  1  0
 14 15  2  0
 14 16  1  0
  8  2  1  0
M  END
> <Identifier>
Drug_182

> <Carcinogen>
0

$$$$

     RDKit          2D

 26 30  0  0  0  0  0  0  0  0999 V2000
   -4.3250   -4.2326    0.0000 C   0  0  0  0  0  0  0  0  0  0  0  0
   -4.4722   -2.7399    0.0000 O   0  0  0  0  0  0  0  0  0  0  0  0
   -3.2531   -1.8660    0.0000 C   0  0  0  0  0  0  0  0  0  0  0  0
   -1.8867   -2.4849    0.0000 O   0  0  0  0  0  0  0  0  0  0  0  0
   -3.4003   -0.3732    0.0000 C   0  0  0  0  0  0  0  0  0  0  0  0
   -4.7667    0.2456    0.0000 C   0  0  0  0  0  0  0  0  0  0  0  0
   -5.9858   -0.6282    0.0000 O   0  0  0  0  0  0  0  0  0  0  0  0
   -4.9139    1.7384    0.0000 C   0  0  0  0  0  0  0  0  0  0  0  0
   -3.6948    2.6123    0.0000 C   0  0  0  0  0  0  0  0  0  0  0  0
   -2.3284    1.9934    0.0000 C   0  0  0  0  0  0  0  0  0  0  0  0
   -1.1092    2.8673    0.0000 C   0  0  0  0  0  0  0  0  0  0  0  0
    0.2571    2.2484    0.0000 N   0  0  0  0  0  0  0  0  0  0  0  0
    1.4763    3.1223    0.0000 C   0  0  0  0  0  0  0  0  0  0  0  0
    2.8427    2.5034    0.0000 C   0  0  0  0  0  0  0  0  0  0  0  0
    2.9899    1.0107    0.0000 C   0  0  0  0  0  0  0  0  0  0  0  0
    1.7708    0.1368    0.0000 C   0  0  0  0  0  0  0  0  0  0  0  0
    2.2251   -1.2927    0.0000 N   0  0  0  0  0  0  0  0  0  0  0  0
    3.7251   -1.3023    0.0000 C   0  0  0  0  0  0  0  0  0  0  0  0
    4.7216   -2.4235    0.0000 C   0  0  0  0  0  0  0  0  0  0  0  0
    6.1908   -2.1210    0.0000 C   0  0  0  0  0  0  0  0  0  0  0  0
    6.6635   -0.6974    0.0000 C   0  0  0  0  0  0  0  0  0  0  0  0
    5.6669    0.4237    0.0000 C   0  0  0  0  0  0  0  0  0  0  0  0
    4.1978    0.1212    0.0000 C   0  0  0  0  0  0  0  0  0  0  0  0
    0.4044    0.7557    0.0000 C   0  0  0  0  0  0  0  0  0  0  0  0
   -0.8148   -0.1182    0.0000 C   0  0  0  0  0  0  0  0  0  0  0  0
   -2.1812    0.5007    0.0000 C   0  0  0  0  0  0  0  0  0  0  0  0
  1  2  1  0
  2  3  1  0
  3  4  2  0
  5  3  1  6
  5  6  1  0
  6  7  1  1
  6  8  1  0
  8  9  1  0
 10  9  1  6
 10 11  1  0
 11 12  1  0
 12 13  1  0
 13 14  1  0
 14 15  1  0
 15 16  2  0
 16 17  1  0
 17 18  1  0
 18 19  2  0
 19 20  1  0
 20 21  2  0
 21 22  1  0
 22 23  2  0
 16 24  1  0
 24 25  1  6
 26 25  1  6
 26  5  1  0
 26 10  1  0
 24 12  1  0
 23 15  1  0
 23 18  1  0
M  END
> <Identifier>
Drug_183

> <Carcinogen>
0

$$$$

     RDKit          2D

  9  9  0  0  0  0  0  0  0  0999 V2000
    2.6931   -0.9264    0.0000 C   0  0  0  0  0  0  0  0  0  0  0  0
    1.2325   -0.5848    0.0000 C   0  0  0  0  0  0  0  0  0  0  0  0
    0.2064   -1.6788    0.0000 N   0  0  0  0  0  0  0  0  0  0  0  0
   -1.2542   -1.3372    0.0000 N   0  0  0  0  0  0  0  0  0  0  0  0
   -1.6886    0.0985    0.0000 C   0  0  0  0  0  0  0  0  0  0  0  0
   -3.1492    0.4401    0.0000 O   0  0  0  0  0  0  0  0  0  0  0  0
   -0.6625    1.1926    0.0000 N   0  0  0  0  0  0  0  0  0  0  0  0
    0.7981    0.8510    0.0000 C   0  0  0  0  0  0  0  0  0  0  0  0
    1.8243    1.9450    0.0000 O   0  0  0  0  0  0  0  0  0  0  0  0
  1  2  1  0
  2  3  2  0
  3  4  1  0
  4  5  1  0
  5  6  2  0
  5  7  1  0
  7  8  1  0
  8  9  2  0
  8  2  1  0
M  END
> <Identifier>
Drug_184

> <Carcinogen>
0

$$$$

     RDKit          2D

 17 17  0  0  0  0  0  0  0  0999 V2000
   -4.9090    1.6919    0.0000 O   0  0  0  0  0  0  0  0  0  0  0  0
   -5.0464    0.1982    0.0000 C   0  0  0  0  0  0  0  0  0  0  0  0
   -6.4086   -0.4298    0.0000 O   0  0  0  0  0  0  0  0  0  0  0  0
   -3.8215   -0.6676    0.0000 C   0  0  0  0  0  0  0  0  0  0  0  0
   -2.4592   -0.0397    0.0000 N   0  0  0  0  0  0  0  0  0  0  0  0
   -1.2343   -0.9055    0.0000 C   0  0  0  0  0  0  0  0  0  0  0  0
   -1.3716   -2.3992    0.0000 O   0  0  0  0  0  0  0  0  0  0  0  0
    0.1280   -0.2776    0.0000 C   0  0  0  0  0  0  0  0  0  0  0  0
    0.2653    1.2161    0.0000 C   0  0  0  0  0  0  0  0  0  0  0  0
   -0.9596    2.0819    0.0000 S   0  0  0  0  0  0  0  0  0  0  0  0
    1.3529   -1.1434    0.0000 C   0  0  0  0  0  0  0  0  0  0  0  0
    2.7151   -0.5155    0.0000 C   0  0  0  0  0  0  0  0  0  0  0  0
    2.8524    0.9782    0.0000 C   0  0  0  0  0  0  0  0  0  0  0  0
    4.2147    1.6062    0.0000 C   0  0  0  0  0  0  0  0  0  0  0  0
    5.4396    0.7404    0.0000 C   0  0  0  0  0  0  0  0  0  0  0  0
    5.3023   -0.7533    0.0000 C   0  0  0  0  0  0  0  0  0  0  0  0
    3.9400   -1.3812    0.0000 C   0  0  0  0  0  0  0  0  0  0  0  0
  1  2  2  0
  2  3  1  0
  2  4  1  0
  4  5  1  0
  5  6  1  0
  6  7  2  0
  6  8  1  0
  8  9  1  0
  9 10  1  0
  8 11  1  0
 11 12  1  0
 12 13  2  0
 13 14  1  0
 14 15  2  0
 15 16  1  0
 16 17  2  0
 17 12  1  0
M  END
> <Identifier>
Drug_185

> <Carcinogen>
0

$$$$

     RDKit          2D

 21 24  0  0  0  0  0  0  0  0999 V2000
   -3.6236    1.6191    0.0000 C   0  0  0  0  0  0  0  0  0  0  0  0
   -2.7739    0.3830    0.0000 C   0  0  0  0  0  0  0  0  0  0  0  0
   -1.9903    1.6620    0.0000 C   0  0  0  0  0  0  0  0  0  0  0  0
   -0.4908    1.6229    0.0000 C   0  0  0  0  0  0  0  0  0  0  0  0
    0.2251    0.3048    0.0000 C   0  0  0  0  0  0  0  0  0  0  0  0
   -0.5585   -0.9743    0.0000 C   0  0  0  0  0  0  0  0  0  0  0  0
    0.1574   -2.2924    0.0000 C   0  0  0  0  0  0  0  0  0  0  0  0
    1.6569   -2.3315    0.0000 C   0  0  0  0  0  0  0  0  0  0  0  0
    2.4405   -1.0525    0.0000 C   0  0  0  0  0  0  0  0  0  0  0  0
    3.9400   -1.0916    0.0000 C   0  0  0  0  0  0  0  0  0  0  0  0
    4.7236    0.1874    0.0000 C   0  0  0  0  0  0  0  0  0  0  0  0
    6.2231    0.1483    0.0000 O   0  0  0  0  0  0  0  0  0  0  0  0
    4.0077    1.5056    0.0000 C   0  0  0  0  0  0  0  0  0  0  0  0
    2.5082    1.5447    0.0000 C   0  0  0  0  0  0  0  0  0  0  0  0
    1.7246    0.2657    0.0000 C   0  0  0  0  0  0  0  0  0  0  0  0
    1.0087    1.5838    0.0000 C   0  0  0  0  0  0  0  0  0  0  0  0
   -2.0580   -0.9352    0.0000 C   0  0  0  0  0  0  0  0  0  0  0  0
   -3.0904   -2.0233    0.0000 C   0  0  0  0  0  0  0  0  0  0  0  0
   -4.4444   -1.3777    0.0000 C   0  0  0  0  0  0  0  0  0  0  0  0
   -4.2487    0.1095    0.0000 C   0  0  0  0  0  0  0  0  0  0  0  0
   -5.3369    1.1419    0.0000 O   0  0  0  0  0  0  0  0  0  0  0  0
  2  1  1  6
  2  3  1  0
  3  4  1  0
  5  4  1  6
  5  6  1  0
  6  7  1  1
  7  8  1  0
  9  8  1  6
  9 10  1  0
 10 11  1  0
 11 12  1  6
 11 13  1  0
 13 14  1  0
 14 15  1  0
 15 16  1  6
  6 17  1  0
 17 18  1  6
 18 19  1  0
 19 20  1  0
 20 21  2  0
 17  2  1  0
 20  2  1  0
 15  5  1  0
 15  9  1  0
M  END
> <Identifier>
Drug_186

> <Carcinogen>
0

$$$$

     RDKit          2D

 13 13  0  0  0  0  0  0  0  0999 V2000
   -6.3761   -0.2644    0.0000 N   0  0  0  0  0  0  0  0  0  0  0  0
   -5.0106    0.3564    0.0000 C   0  0  0  0  0  0  0  0  0  0  0  0
   -3.7902   -0.5157    0.0000 C   0  0  0  0  0  0  0  0  0  0  0  0
   -2.4247    0.1051    0.0000 C   0  0  0  0  0  0  0  0  0  0  0  0
   -2.2796    1.5980    0.0000 O   0  0  0  0  0  0  0  0  0  0  0  0
   -1.2044   -0.7671    0.0000 N   0  0  0  0  0  0  0  0  0  0  0  0
    0.1612   -0.1463    0.0000 C   0  0  0  0  0  0  0  0  0  0  0  0
    1.3815   -1.0184    0.0000 C   0  0  0  0  0  0  0  0  0  0  0  0
    2.7470   -0.3976    0.0000 C   0  0  0  0  0  0  0  0  0  0  0  0
    4.0519   -1.1374    0.0000 C   0  0  0  0  0  0  0  0  0  0  0  0
    5.1587   -0.1250    0.0000 N   0  0  0  0  0  0  0  0  0  0  0  0
    4.5379    1.2405    0.0000 C   0  0  0  0  0  0  0  0  0  0  0  0
    3.0474    1.0720    0.0000 N   0  0  0  0  0  0  0  0  0  0  0  0
  1  2  1  0
  2  3  1  0
  3  4  1  0
  4  5  2  0
  4  6  1  0
  6  7  1  0
  7  8  1  0
  8  9  1  0
  9 10  2  0
 10 11  1  0
 11 12  1  0
 12 13  2  0
 13  9  1  0
M  END
> <Identifier>
Drug_187

> <Carcinogen>
0

$$$$

     RDKit          2D

 12 11  0  0  0  0  0  0  0  0999 V2000
   -3.8971   -1.2500    0.0000 C   0  0  0  0  0  0  0  0  0  0  0  0
   -2.5981   -0.5000    0.0000 C   0  0  0  0  0  0  0  0  0  0  0  0
   -2.5981    1.0000    0.0000 O   0  0  0  0  0  0  0  0  0  0  0  0
   -1.2990   -1.2500    0.0000 N   0  0  0  0  0  0  0  0  0  0  0  0
    0.0000   -0.5000    0.0000 C   0  0  0  0  0  0  0  0  0  0  0  0
    1.2990   -1.2500    0.0000 C   0  0  0  0  0  0  0  0  0  0  0  0
    2.5981   -0.5000    0.0000 C   0  0  0  0  0  0  0  0  0  0  0  0
    2.5981    1.0000    0.0000 O   0  0  0  0  0  0  0  0  0  0  0  0
    3.8971   -1.2500    0.0000 O   0  0  0  0  0  0  0  0  0  0  0  0
   -0.0000    1.0000    0.0000 C   0  0  0  0  0  0  0  0  0  0  0  0
   -1.2990    1.7500    0.0000 O   0  0  0  0  0  0  0  0  0  0  0  0
    1.2990    1.7500    0.0000 O   0  0  0  0  0  0  0  0  0  0  0  0
  1  2  1  0
  2  3  2  0
  2  4  1  0
  4  5  1  0
  5  6  1  6
  6  7  1  0
  7  8  2  0
  7  9  1  0
  5 10  1  0
 10 11  2  0
 10 12  1  0
M  END
> <Identifier>
Drug_188

> <Carcinogen>
0

$$$$

     RDKit          2D

 18 19  0  0  0  0  0  0  0  0999 V2000
   -5.0696    1.2306    0.0000 C   0  0  0  0  0  0  0  0  0  0  0  0
   -4.2677   -0.0371    0.0000 C   0  0  0  0  0  0  0  0  0  0  0  0
   -4.9647   -1.3653    0.0000 O   0  0  0  0  0  0  0  0  0  0  0  0
   -2.7689    0.0235    0.0000 O   0  0  0  0  0  0  0  0  0  0  0  0
   -1.9671   -1.2442    0.0000 C   0  0  0  0  0  0  0  0  0  0  0  0
   -0.4683   -1.1837    0.0000 C   0  0  0  0  0  0  0  0  0  0  0  0
    0.2286    0.1446    0.0000 C   0  0  0  0  0  0  0  0  0  0  0  0
   -0.5732    1.4123    0.0000 C   0  0  0  0  0  0  0  0  0  0  0  0
   -2.0720    1.3517    0.0000 O   0  0  0  0  0  0  0  0  0  0  0  0
    0.1237    2.7406    0.0000 O   0  0  0  0  0  0  0  0  0  0  0  0
    1.7274    0.2052    0.0000 N   0  0  0  0  0  0  0  0  0  0  0  0
    2.9951    1.0070    0.0000 C   0  0  0  0  0  0  0  0  0  0  0  0
    3.3245    2.4704    0.0000 O   0  0  0  0  0  0  0  0  0  0  0  0
    3.7969   -0.2607    0.0000 C   0  0  0  0  0  0  0  0  0  0  0  0
    5.2603   -0.5901    0.0000 N   0  0  0  0  0  0  0  0  0  0  0  0
    2.5292   -1.0625    0.0000 C   0  0  0  0  0  0  0  0  0  0  0  0
    1.8323   -2.3908    0.0000 S   0  0  0  0  0  0  0  0  0  0  0  0
    0.3335   -2.4514    0.0000 C   0  0  0  0  0  0  0  0  0  0  0  0
  1  2  1  0
  2  3  2  0
  2  4  1  0
  4  5  1  0
  5  6  1  0
  6  7  2  0
  7  8  1  0
  8  9  2  0
  8 10  1  0
  7 11  1  0
 11 12  1  0
 12 13  2  0
 12 14  1  0
 14 15  1  1
 14 16  1  0
 16 17  1  1
 17 18  1  0
 18  6  1  0
 16 11  1  0
M  END
> <Identifier>
Drug_189

> <Carcinogen>
0

$$$$

     RDKit          2D

 24 29  0  0  0  0  0  0  0  0999 V2000
   -6.4978    0.2725    0.0000 C   0  0  0  0  0  0  0  0  0  0  0  0
   -5.3592   -0.7041    0.0000 C   0  0  0  0  0  0  0  0  0  0  0  0
   -3.9442   -0.2064    0.0000 C   0  0  0  0  0  0  0  0  0  0  0  0
   -3.6678    1.2679    0.0000 C   0  0  0  0  0  0  0  0  0  0  0  0
   -3.1700   -0.1471    0.0000 C   0  0  0  0  0  0  0  0  0  0  0  0
   -0.2521   -1.6618    0.0000 C   0  0  0  0  0  0  0  0  0  0  0  0
    1.1629   -1.1641    0.0000 C   0  0  0  0  0  0  0  0  0  0  0  0
    2.4796   -1.8826    0.0000 N   0  0  0  0  0  0  0  0  0  0  0  0
    2.6723   -3.3702    0.0000 C   0  0  0  0  0  0  0  0  0  0  0  0
    3.5699   -0.8524    0.0000 C   0  0  0  0  0  0  0  0  0  0  0  0
    5.0650   -0.9732    0.0000 C   0  0  0  0  0  0  0  0  0  0  0  0
    5.9172    0.2612    0.0000 C   0  0  0  0  0  0  0  0  0  0  0  0
    5.2743    1.6164    0.0000 C   0  0  0  0  0  0  0  0  0  0  0  0
    3.7792    1.7373    0.0000 C   0  0  0  0  0  0  0  0  0  0  0  0
    2.9269    0.5029    0.0000 C   0  0  0  0  0  0  0  0  0  0  0  0
    1.4394    0.3102    0.0000 C   0  0  0  0  0  0  0  0  0  0  0  0
    0.3008    1.2868    0.0000 C   0  0  0  0  0  0  0  0  0  0  0  0
   -1.1142    0.7891    0.0000 C   0  0  0  0  0  0  0  0  0  0  0  0
   -2.2527    1.7657    0.0000 C   0  0  0  0  0  0  0  0  0  0  0  0
   -0.8004    2.1409    0.0000 C   0  0  0  0  0  0  0  0  0  0  0  0
   -0.2503    3.5364    0.0000 O   0  0  0  0  0  0  0  0  0  0  0  0
   -1.3907   -0.6852    0.0000 N   0  0  0  0  0  0  0  0  0  0  0  0
   -2.8057   -1.1829    0.0000 C   0  0  0  0  0  0  0  0  0  0  0  0
   -3.0821   -2.6572    0.0000 O   0  0  0  0  0  0  0  0  0  0  0  0
  1  2  1  0
  3  2  1  1
  3  4  1  0
  4  5  1  0
  6  5  1  6
  6  7  1  0
  7  8  1  1
  8  9  1  0
  8 10  1  0
 10 11  2  0
 11 12  1  0
 12 13  2  0
 13 14  1  0
 14 15  2  0
 15 16  1  0
 16 17  1  0
 18 17  1  1
 18 19  1  0
 19 20  1  0
 20 21  1  1
 18 22  1  0
 22 23  1  0
 23 24  1  6
 23  3  1  0
 19  4  1  0
 22  6  1  0
 16  7  1  0
 15 10  1  0
 20 16  1  0
M  END
> <Identifier>
Drug_190

> <Carcinogen>
0

$$$$

     RDKit          2D

 20 20  0  0  0  0  0  0  0  0999 V2000
    2.4056   -3.5554    0.0000 C   0  0  0  0  0  0  0  0  0  0  0  0
    1.0927   -2.8299    0.0000 C   0  0  0  0  0  0  0  0  0  0  0  0
   -0.1920   -3.6043    0.0000 O   0  0  0  0  0  0  0  0  0  0  0  0
    1.0644   -1.3302    0.0000 N   0  0  0  0  0  0  0  0  0  0  0  0
   -0.2485   -0.6048    0.0000 C   0  0  0  0  0  0  0  0  0  0  0  0
   -1.5332   -1.3791    0.0000 C   0  0  0  0  0  0  0  0  0  0  0  0
   -1.5049   -2.8788    0.0000 O   0  0  0  0  0  0  0  0  0  0  0  0
   -2.8461   -0.6537    0.0000 O   0  0  0  0  0  0  0  0  0  0  0  0
   -2.8743    0.8461    0.0000 C   0  0  0  0  0  0  0  0  0  0  0  0
   -4.1872    1.5715    0.0000 C   0  0  0  0  0  0  0  0  0  0  0  0
   -5.4719    0.7972    0.0000 O   0  0  0  0  0  0  0  0  0  0  0  0
   -1.5896    1.6204    0.0000 C   0  0  0  0  0  0  0  0  0  0  0  0
   -1.6178    3.1201    0.0000 O   0  0  0  0  0  0  0  0  0  0  0  0
   -0.2767    0.8950    0.0000 C   0  0  0  0  0  0  0  0  0  0  0  0
    1.0080    1.6693    0.0000 O   0  0  0  0  0  0  0  0  0  0  0  0
    2.3209    0.9438    0.0000 C   0  0  0  0  0  0  0  0  0  0  0  0
    2.3491   -0.5559    0.0000 C   0  0  0  0  0  0  0  0  0  0  0  0
    3.6056    1.7181    0.0000 C   0  0  0  0  0  0  0  0  0  0  0  0
    3.5774    3.2179    0.0000 O   0  0  0  0  0  0  0  0  0  0  0  0
    4.9185    0.9927    0.0000 O   0  0  0  0  0  0  0  0  0  0  0  0
  1  2  1  0
  2  3  2  0
  2  4  1  0
  5  4  1  1
  5  6  1  0
  6  7  1  1
  6  8  1  0
  8  9  1  0
  9 10  1  6
 10 11  1  0
  9 12  1  0
 12 13  1  1
 12 14  1  0
 14 15  1  6
 15 16  1  0
 16 17  1  1
 16 18  1  0
 18 19  2  0
 18 20  1  0
 14  5  1  0
M  END
> <Identifier>
Drug_191

> <Carcinogen>
0

$$$$

     RDKit          2D

 26 31  0  0  0  0  0  0  0  0999 V2000
   -3.0772    3.2086    0.0000 C   0  0  0  0  0  0  0  0  0  0  0  0
   -2.3107    1.9193    0.0000 N   0  0  0  0  0  0  0  0  0  0  0  0
   -3.0441    0.6108    0.0000 C   0  0  0  0  0  0  0  0  0  0  0  0
   -2.2776   -0.6786    0.0000 C   0  0  0  0  0  0  0  0  0  0  0  0
   -0.7778   -0.6595    0.0000 C   0  0  0  0  0  0  0  0  0  0  0  0
    0.7221   -0.6404    0.0000 C   0  0  0  0  0  0  0  0  0  0  0  0
    1.4886   -1.9297    0.0000 C   0  0  0  0  0  0  0  0  0  0  0  0
    2.9885   -1.9106    0.0000 C   0  0  0  0  0  0  0  0  0  0  0  0
    3.7219   -0.6021    0.0000 C   0  0  0  0  0  0  0  0  0  0  0  0
    2.9554    0.6872    0.0000 C   0  0  0  0  0  0  0  0  0  0  0  0
    1.4555    0.6681    0.0000 C   0  0  0  0  0  0  0  0  0  0  0  0
    0.6890    1.9575    0.0000 N   0  0  0  0  0  0  0  0  0  0  0  0
   -0.8109    1.9384    0.0000 C   0  0  0  0  0  0  0  0  0  0  0  0
   -1.5442    0.6299    0.0000 C   0  0  0  0  0  0  0  0  0  0  0  0
   -0.9918   -0.0126    0.0000 C   0  0  0  0  0  0  0  0  0  0  0  0
   -1.6777   -0.6710    0.0000 C   0  0  0  0  0  0  0  0  0  0  0  0
   -0.9752   -1.3116    0.0000 N   0  0  0  0  0  0  0  0  0  0  0  0
   -3.7444   -3.2956    0.0000 C   0  0  0  0  0  0  0  0  0  0  0  0
   -1.5111   -1.9680    0.0000 C   0  0  0  0  0  0  0  0  0  0  0  0
   -0.0113   -1.9489    0.0000 N   0  0  0  0  0  0  0  0  0  0  0  0
    0.7221   -0.6404    0.0000 C   0  0  0  0  0  0  0  0  0  0  0  0
    2.2220   -0.6213    0.0000 C   0  0  0  0  0  0  0  0  0  0  0  0
    2.9554    0.6872    0.0000 C   0  0  0  0  0  0  0  0  0  0  0  0
    2.1889    1.9766    0.0000 C   0  0  0  0  0  0  0  0  0  0  0  0
    0.6890    1.9575    0.0000 C   0  0  0  0  0  0  0  0  0  0  0  0
   -0.0444    0.6490    0.0000 C   0  0  0  0  0  0  0  0  0  0  0  0
  1  2  1  0
  2  3  1  0
  3  4  1  0
  5  4  1  1
  5  6  1  0
  6  7  2  0
  7  8  1  0
  8  9  2  0
  9 10  1  0
 10 11  2  0
 11 12  1  0
 13 12  1  1
 13 14  1  0
 14 15  1  6
 15 16  1  0
 16 17  1  0
 17 18  1  0
 17 19  1  0
 19 20  1  1
 20 21  1  0
 21 22  2  0
 22 23  1  0
 23 24  2  0
 24 25  1  0
 25 26  2  0
 13  2  1  0
 26 14  1  0
 14  5  1  0
 26 21  1  0
 19  5  1  0
 11  6  1  0
M  END
> <Identifier>
Drug_192

> <Carcinogen>
0

$$$$

     RDKit          2D

 25 28  0  0  0  0  0  0  0  0999 V2000
   -7.8603    0.2603    0.0000 C   0  0  0  0  0  0  0  0  0  0  0  0
   -6.4901    0.8707    0.0000 C   0  0  0  0  0  0  0  0  0  0  0  0
   -5.2764   -0.0107    0.0000 C   0  0  0  0  0  0  0  0  0  0  0  0
   -5.4328   -1.5026    0.0000 C   0  0  0  0  0  0  0  0  0  0  0  0
   -6.8030   -2.1130    0.0000 O   0  0  0  0  0  0  0  0  0  0  0  0
   -3.9062    0.5996    0.0000 N   0  0  0  0  0  0  0  0  0  0  0  0
   -2.6925   -0.2818    0.0000 C   0  0  0  0  0  0  0  0  0  0  0  0
   -2.8489   -1.7736    0.0000 O   0  0  0  0  0  0  0  0  0  0  0  0
   -1.3223    0.3286    0.0000 C   0  0  0  0  0  0  0  0  0  0  0  0
   -0.1086   -0.5528    0.0000 C   0  0  0  0  0  0  0  0  0  0  0  0
    1.2616    0.0576    0.0000 C   0  0  0  0  0  0  0  0  0  0  0  0
    2.4753   -0.8239    0.0000 C   0  0  0  0  0  0  0  0  0  0  0  0
    2.3189   -2.3157    0.0000 C   0  0  0  0  0  0  0  0  0  0  0  0
    3.5326   -3.1971    0.0000 C   0  0  0  0  0  0  0  0  0  0  0  0
    4.9028   -2.5867    0.0000 C   0  0  0  0  0  0  0  0  0  0  0  0
    5.0592   -1.0949    0.0000 C   0  0  0  0  0  0  0  0  0  0  0  0
    6.1737   -0.0910    0.0000 N   0  0  0  0  0  0  0  0  0  0  0  0
    5.5634    1.2792    0.0000 C   0  0  0  0  0  0  0  0  0  0  0  0
    4.0020    1.2783    0.0000 C   0  0  0  0  0  0  0  0  0  0  0  0
    3.8455   -0.2135    0.0000 C   0  0  0  0  0  0  0  0  0  0  0  0
    2.7883    2.1598    0.0000 C   0  0  0  0  0  0  0  0  0  0  0  0
    1.4181    1.5494    0.0000 C   0  0  0  0  0  0  0  0  0  0  0  0
    0.2044    2.4308    0.0000 N   0  0  0  0  0  0  0  0  0  0  0  0
    0.3609    3.9226    0.0000 C   0  0  0  0  0  0  0  0  0  0  0  0
   -1.1658    1.8204    0.0000 C   0  0  0  0  0  0  0  0  0  0  0  0
  1  2  1  0
  3  2  1  6
  3  4  1  0
  4  5  1  0
  3  6  1  0
  6  7  1  0
  7  8  2  0
  9  7  1  1
  9 10  1  0
 10 11  2  0
 11 12  1  0
 12 13  2  0
 13 14  1  0
 14 15  2  0
 15 16  1  0
 16 17  1  0
 17 18  1  0
 18 19  2  0
 19 20  1  0
 19 21  1  0
 22 21  1  6
 22 23  1  0
 23 24  1  0
 23 25  1  0
 25  9  1  0
 22 11  1  0
 20 12  1  0
 20 16  2  0
M  END
> <Identifier>
Drug_193

> <Carcinogen>
0

$$$$

     RDKit          2D

 29 32  0  0  0  0  0  0  0  0999 V2000
   -5.1614   -2.8865    0.0000 O   0  0  0  0  0  0  0  0  0  0  0  0
   -4.7327   -1.4491    0.0000 C   0  0  0  0  0  0  0  0  0  0  0  0
   -5.7632   -0.3591    0.0000 C   0  0  0  0  0  0  0  0  0  0  0  0
   -5.3345    1.0783    0.0000 C   0  0  0  0  0  0  0  0  0  0  0  0
   -6.3649    2.1683    0.0000 C   0  0  0  0  0  0  0  0  0  0  0  0
   -7.8241    1.8209    0.0000 C   0  0  0  0  0  0  0  0  0  0  0  0
   -8.8546    2.9109    0.0000 F   0  0  0  0  0  0  0  0  0  0  0  0
   -8.2529    0.3835    0.0000 C   0  0  0  0  0  0  0  0  0  0  0  0
   -7.2224   -0.7065    0.0000 C   0  0  0  0  0  0  0  0  0  0  0  0
   -3.2735   -1.1017    0.0000 C   0  0  0  0  0  0  0  0  0  0  0  0
   -2.2430   -2.1917    0.0000 C   0  0  0  0  0  0  0  0  0  0  0  0
   -0.7838   -1.8443    0.0000 C   0  0  0  0  0  0  0  0  0  0  0  0
   -0.3551   -0.4069    0.0000 N   0  0  0  0  0  0  0  0  0  0  0  0
    1.1041   -0.0594    0.0000 C   0  0  0  0  0  0  0  0  0  0  0  0
    2.1346   -1.1495    0.0000 C   0  0  0  0  0  0  0  0  0  0  0  0
    3.5938   -0.8020    0.0000 N   0  0  0  0  0  0  0  0  0  0  0  0
    4.6243   -1.8920    0.0000 C   0  0  0  0  0  0  0  0  0  0  0  0
    4.1956   -3.3295    0.0000 O   0  0  0  0  0  0  0  0  0  0  0  0
    6.0835   -1.5446    0.0000 N   0  0  0  0  0  0  0  0  0  0  0  0
    6.5123   -0.1072    0.0000 C   0  0  0  0  0  0  0  0  0  0  0  0
    7.9715    0.2402    0.0000 C   0  0  0  0  0  0  0  0  0  0  0  0
    8.4002    1.6776    0.0000 C   0  0  0  0  0  0  0  0  0  0  0  0
    7.3697    2.7676    0.0000 C   0  0  0  0  0  0  0  0  0  0  0  0
    5.9105    2.4202    0.0000 C   0  0  0  0  0  0  0  0  0  0  0  0
    5.4818    0.9828    0.0000 C   0  0  0  0  0  0  0  0  0  0  0  0
    4.0226    0.6354    0.0000 C   0  0  0  0  0  0  0  0  0  0  0  0
    2.9921    1.7254    0.0000 O   0  0  0  0  0  0  0  0  0  0  0  0
   -1.3856    0.6831    0.0000 C   0  0  0  0  0  0  0  0  0  0  0  0
   -2.8448    0.3357    0.0000 C   0  0  0  0  0  0  0  0  0  0  0  0
  1  2  2  0
  2  3  1  0
  3  4  2  0
  4  5  1  0
  5  6  2  0
  6  7  1  0
  6  8  1  0
  8  9  2  0
  2 10  1  0
 10 11  1  0
 11 12  1  0
 12 13  1  0
 13 14  1  0
 14 15  1  0
 15 16  1  0
 16 17  1  0
 17 18  2  0
 17 19  1  0
 19 20  1  0
 20 21  2  0
 21 22  1  0
 22 23  2  0
 23 24  1  0
 24 25  2  0
 25 26  1  0
 26 27  2  0
 13 28  1  0
 28 29  1  0
  9  3  1  0
 29 10  1  0
 26 16  1  0
 25 20  1  0
M  END
> <Identifier>
Drug_194

> <Carcinogen>
0

$$$$

     RDKit          2D

 24 27  0  0  0  0  0  0  0  0999 V2000
   -3.5590    4.6790    0.0000 C   0  0  0  0  0  0  0  0  0  0  0  0
   -3.2294    3.2156    0.0000 S   0  0  0  0  0  0  0  0  0  0  0  0
   -1.7974    2.7694    0.0000 C   0  0  0  0  0  0  0  0  0  0  0  0
   -0.6948    3.7864    0.0000 C   0  0  0  0  0  0  0  0  0  0  0  0
    0.7372    3.3402    0.0000 C   0  0  0  0  0  0  0  0  0  0  0  0
    1.0668    1.8768    0.0000 C   0  0  0  0  0  0  0  0  0  0  0  0
   -0.0357    0.8597    0.0000 C   0  0  0  0  0  0  0  0  0  0  0  0
   -1.4678    1.3060    0.0000 C   0  0  0  0  0  0  0  0  0  0  0  0
    0.0720   -0.6364    0.0000 C   0  0  0  0  0  0  0  0  0  0  0  0
   -1.2292   -1.3826    0.0000 N   0  0  0  0  0  0  0  0  0  0  0  0
   -2.5260   -0.6289    0.0000 C   0  0  0  0  0  0  0  0  0  0  0  0
   -3.8272   -1.3751    0.0000 C   0  0  0  0  0  0  0  0  0  0  0  0
   -3.8316   -2.8751    0.0000 N   0  0  0  0  0  0  0  0  0  0  0  0
   -5.1328   -3.6214    0.0000 C   0  0  0  0  0  0  0  0  0  0  0  0
   -2.5347   -3.6289    0.0000 C   0  0  0  0  0  0  0  0  0  0  0  0
   -1.2335   -2.8826    0.0000 C   0  0  0  0  0  0  0  0  0  0  0  0
    1.3089   -1.4850    0.0000 C   0  0  0  0  0  0  0  0  0  0  0  0
    2.7436   -1.0470    0.0000 C   0  0  0  0  0  0  0  0  0  0  0  0
    3.6754   -2.2224    0.0000 C   0  0  0  0  0  0  0  0  0  0  0  0
    5.1593   -2.0031    0.0000 C   0  0  0  0  0  0  0  0  0  0  0  0
    5.7113   -0.6084    0.0000 C   0  0  0  0  0  0  0  0  0  0  0  0
    4.7795    0.5670    0.0000 C   0  0  0  0  0  0  0  0  0  0  0  0
    3.2956    0.3478    0.0000 C   0  0  0  0  0  0  0  0  0  0  0  0
    2.5494    1.6490    0.0000 S   0  0  0  0  0  0  0  0  0  0  0  0
  1  2  1  0
  2  3  1  0
  3  4  2  0
  4  5  1  0
  5  6  2  0
  6  7  1  0
  7  8  2  0
  7  9  1  0
  9 10  1  0
 10 11  1  0
 11 12  1  0
 12 13  1  0
 13 14  1  0
 13 15  1  0
 15 16  1  0
  9 17  1  0
 17 18  1  0
 18 19  2  0
 19 20  1  0
 20 21  2  0
 21 22  1  0
 22 23  2  0
 23 24  1  0
  8  3  1  0
 16 10  1  0
 23 18  1  0
 24  6  1  0
M  END
> <Identifier>
Drug_195

> <Carcinogen>
0

$$$$

     RDKit          2D

 45 52  0  0  0  0  0  0  0  0999 V2000
   -0.1016   -2.2916    0.0000 C   0  0  0  0  0  0  0  0  0  0  0  0
   -1.0856   -2.2774    0.0000 C   0  0  0  0  0  0  0  0  0  0  0  0
   -1.6916   -3.6495    0.0000 C   0  0  0  0  0  0  0  0  0  0  0  0
   -1.9710   -1.0665    0.0000 C   0  0  0  0  0  0  0  0  0  0  0  0
   -0.6743   -0.3126    0.0000 N   0  0  0  0  0  0  0  0  0  0  0  0
    0.6270   -1.0586    0.0000 C   0  0  0  0  0  0  0  0  0  0  0  0
    0.7500   -2.0350    0.0000 O   0  0  0  0  0  0  0  0  0  0  0  0
    1.9238   -0.3046    0.0000 C   0  0  0  0  0  0  0  0  0  0  0  0
    3.2251   -1.0506    0.0000 C   0  0  0  0  0  0  0  0  0  0  0  0
    4.5218   -0.2967    0.0000 C   0  0  0  0  0  0  0  0  0  0  0  0
    5.8232   -1.0427    0.0000 C   0  0  0  0  0  0  0  0  0  0  0  0
    5.8277   -2.5427    0.0000 C   0  0  0  0  0  0  0  0  0  0  0  0
    7.1291   -3.2887    0.0000 C   0  0  0  0  0  0  0  0  0  0  0  0
    8.4258   -2.5347    0.0000 C   0  0  0  0  0  0  0  0  0  0  0  0
    8.4212   -1.0347    0.0000 C   0  0  0  0  0  0  0  0  0  0  0  0
    9.4215    0.0830    0.0000 N   0  0  0  0  0  0  0  0  0  0  0  0
    8.6675    1.3798    0.0000 C   0  0  0  0  0  0  0  0  0  0  0  0
    7.1153    1.2113    0.0000 C   0  0  0  0  0  0  0  0  0  0  0  0
    7.1199   -0.2887    0.0000 C   0  0  0  0  0  0  0  0  0  0  0  0
    5.8140    1.9573    0.0000 C   0  0  0  0  0  0  0  0  0  0  0  0
    4.5172    1.2033    0.0000 C   0  0  0  0  0  0  0  0  0  0  0  0
    3.2159    1.9493    0.0000 N   0  0  0  0  0  0  0  0  0  0  0  0
    3.2113    3.4493    0.0000 C   0  0  0  0  0  0  0  0  0  0  0  0
    1.9192    1.1954    0.0000 C   0  0  0  0  0  0  0  0  0  0  0  0
   -3.0827   -2.0737    0.0000 O   0  0  0  0  0  0  0  0  0  0  0  0
   -4.3840   -1.3276    0.0000 C   0  0  0  0  0  0  0  0  0  0  0  0
   -4.5362   -2.8199    0.0000 O   0  0  0  0  0  0  0  0  0  0  0  0
   -5.8092   -1.7955    0.0000 C   0  0  0  0  0  0  0  0  0  0  0  0
   -6.4151   -3.1677    0.0000 C   0  0  0  0  0  0  0  0  0  0  0  0
   -7.9073   -3.0155    0.0000 C   0  0  0  0  0  0  0  0  0  0  0  0
   -8.2237   -1.5492    0.0000 C   0  0  0  0  0  0  0  0  0  0  0  0
   -6.9269   -0.7952    0.0000 N   0  0  0  0  0  0  0  0  0  0  0  0
   -6.6196    0.6729    0.0000 C   0  0  0  0  0  0  0  0  0  0  0  0
   -7.7374    1.6732    0.0000 O   0  0  0  0  0  0  0  0  0  0  0  0
   -5.1944    1.1408    0.0000 C   0  0  0  0  0  0  0  0  0  0  0  0
   -4.8870    2.6090    0.0000 C   0  0  0  0  0  0  0  0  0  0  0  0
   -3.4619    3.0769    0.0000 C   0  0  0  0  0  0  0  0  0  0  0  0
   -2.3441    2.0766    0.0000 C   0  0  0  0  0  0  0  0  0  0  0  0
   -0.9189    2.5445    0.0000 C   0  0  0  0  0  0  0  0  0  0  0  0
   -0.6116    4.0127    0.0000 C   0  0  0  0  0  0  0  0  0  0  0  0
   -1.7293    5.0129    0.0000 C   0  0  0  0  0  0  0  0  0  0  0  0
   -3.1545    4.5450    0.0000 C   0  0  0  0  0  0  0  0  0  0  0  0
   -4.0766    0.1405    0.0000 N   0  0  0  0  0  0  0  0  0  0  0  0
   -2.5853    0.3019    0.0000 C   0  0  0  0  0  0  0  0  0  0  0  0
   -1.5466    1.3840    0.0000 O   0  0  0  0  0  0  0  0  0  0  0  0
  1  2  1  0
  2  3  1  0
  2  4  1  0
  4  5  1  6
  5  6  1  0
  6  7  2  0
  8  6  1  1
  8  9  1  0
 10  9  1  1
 10 11  1  0
 11 12  2  0
 12 13  1  0
 13 14  2  0
 14 15  1  0
 15 16  1  0
 16 17  1  0
 17 18  2  0
 18 19  1  0
 18 20  1  0
 21 20  1  6
 21 22  1  0
 22 23  1  0
 22 24  1  0
  4 25  1  0
 25 26  1  0
 26 27  1  6
 26 28  1  0
 28 29  1  6
 29 30  1  0
 30 31  1  0
 31 32  1  0
 32 33  1  0
 33 34  2  0
 33 35  1  0
 35 36  1  6
 36 37  1  0
 37 38  2  0
 38 39  1  0
 39 40  2  0
 40 41  1  0
 41 42  2  0
 35 43  1  0
 43 44  1  0
 44 45  2  0
 44  4  1  0
 24  8  1  0
 43 26  1  0
 21 10  1  0
 32 28  1  0
 42 37  1  0
 19 11  1  0
 19 15  2  0
M  END
> <Identifier>
Drug_196

> <Carcinogen>
0

$$$$

     RDKit          2D

 21 24  0  0  0  0  0  0  0  0999 V2000
    6.3729    1.9689    0.0000 C   0  0  0  0  0  0  0  0  0  0  0  0
    5.1705    1.0721    0.0000 N   0  0  0  0  0  0  0  0  0  0  0  0
    3.7927    1.6651    0.0000 C   0  0  0  0  0  0  0  0  0  0  0  0
    2.5903    0.7683    0.0000 C   0  0  0  0  0  0  0  0  0  0  0  0
    1.2124    1.3612    0.0000 C   0  0  0  0  0  0  0  0  0  0  0  0
    0.0100    0.4645    0.0000 C   0  0  0  0  0  0  0  0  0  0  0  0
   -0.6790    0.0136    0.0000 C   0  0  0  0  0  0  0  0  0  0  0  0
   -1.7662   -0.7973    0.0000 C   0  0  0  0  0  0  0  0  0  0  0  0
   -2.3948   -1.3290    0.0000 C   0  0  0  0  0  0  0  0  0  0  0  0
   -2.5702    0.1607    0.0000 C   0  0  0  0  0  0  0  0  0  0  0  0
   -3.9481    0.7536    0.0000 C   0  0  0  0  0  0  0  0  0  0  0  0
   -4.1235    2.2433    0.0000 C   0  0  0  0  0  0  0  0  0  0  0  0
   -2.9211    3.1401    0.0000 C   0  0  0  0  0  0  0  0  0  0  0  0
   -1.5432    2.5471    0.0000 C   0  0  0  0  0  0  0  0  0  0  0  0
   -1.3678    1.0574    0.0000 C   0  0  0  0  0  0  0  0  0  0  0  0
   -1.0170   -1.9220    0.0000 C   0  0  0  0  0  0  0  0  0  0  0  0
   -0.8416   -3.4117    0.0000 C   0  0  0  0  0  0  0  0  0  0  0  0
    0.5362   -4.0046    0.0000 C   0  0  0  0  0  0  0  0  0  0  0  0
    1.7387   -3.1079    0.0000 C   0  0  0  0  0  0  0  0  0  0  0  0
    1.5633   -1.6182    0.0000 C   0  0  0  0  0  0  0  0  0  0  0  0
    0.1854   -1.0252    0.0000 C   0  0  0  0  0  0  0  0  0  0  0  0
  1  2  1  0
  2  3  1  0
  3  4  1  0
  4  5  1  0
  6  5  1  6
  6  7  1  0
  7  8  1  0
  9  8  1  6
  9 10  1  0
 10 11  2  0
 11 12  1  0
 12 13  2  0
 13 14  1  0
 14 15  2  0
  9 16  1  0
 16 17  2  0
 17 18  1  0
 18 19  2  0
 19 20  1  0
 20 21  2  0
 15  6  1  0
 21 16  1  0
 21  6  1  0
 15 10  1  0
M  END
> <Identifier>
Drug_197

> <Carcinogen>
0

$$$$

     RDKit          2D

 26 30  0  0  0  0  0  0  0  0999 V2000
   -4.3250   -4.2326    0.0000 C   0  0  0  0  0  0  0  0  0  0  0  0
   -4.4722   -2.7399    0.0000 O   0  0  0  0  0  0  0  0  0  0  0  0
   -3.2531   -1.8660    0.0000 C   0  0  0  0  0  0  0  0  0  0  0  0
   -1.8867   -2.4849    0.0000 O   0  0  0  0  0  0  0  0  0  0  0  0
   -3.4003   -0.3732    0.0000 C   0  0  0  0  0  0  0  0  0  0  0  0
   -4.7667    0.2456    0.0000 C   0  0  0  0  0  0  0  0  0  0  0  0
   -5.9858   -0.6282    0.0000 O   0  0  0  0  0  0  0  0  0  0  0  0
   -4.9139    1.7384    0.0000 C   0  0  0  0  0  0  0  0  0  0  0  0
   -3.6948    2.6123    0.0000 C   0  0  0  0  0  0  0  0  0  0  0  0
   -2.3284    1.9934    0.0000 C   0  0  0  0  0  0  0  0  0  0  0  0
   -1.1092    2.8673    0.0000 C   0  0  0  0  0  0  0  0  0  0  0  0
    0.2571    2.2484    0.0000 N   0  0  0  0  0  0  0  0  0  0  0  0
    1.4763    3.1223    0.0000 C   0  0  0  0  0  0  0  0  0  0  0  0
    2.8427    2.5034    0.0000 C   0  0  0  0  0  0  0  0  0  0  0  0
    2.9899    1.0107    0.0000 C   0  0  0  0  0  0  0  0  0  0  0  0
    1.7708    0.1368    0.0000 C   0  0  0  0  0  0  0  0  0  0  0  0
    2.2251   -1.2927    0.0000 N   0  0  0  0  0  0  0  0  0  0  0  0
    3.7251   -1.3023    0.0000 C   0  0  0  0  0  0  0  0  0  0  0  0
    4.7216   -2.4235    0.0000 C   0  0  0  0  0  0  0  0  0  0  0  0
    6.1908   -2.1210    0.0000 C   0  0  0  0  0  0  0  0  0  0  0  0
    6.6635   -0.6974    0.0000 C   0  0  0  0  0  0  0  0  0  0  0  0
    5.6669    0.4237    0.0000 C   0  0  0  0  0  0  0  0  0  0  0  0
    4.1978    0.1212    0.0000 C   0  0  0  0  0  0  0  0  0  0  0  0
    0.4044    0.7557    0.0000 C   0  0  0  0  0  0  0  0  0  0  0  0
   -0.8148   -0.1182    0.0000 C   0  0  0  0  0  0  0  0  0  0  0  0
   -2.1812    0.5007    0.0000 C   0  0  0  0  0  0  0  0  0  0  0  0
  1  2  1  0
  2  3  1  0
  3  4  2  0
  5  3  1  6
  5  6  1  0
  6  7  1  1
  6  8  1  0
  8  9  1  0
 10  9  1  1
 10 11  1  0
 11 12  1  0
 12 13  1  0
 13 14  1  0
 14 15  1  0
 15 16  2  0
 16 17  1  0
 17 18  1  0
 18 19  2  0
 19 20  1  0
 20 21  2  0
 21 22  1  0
 22 23  2  0
 16 24  1  0
 24 25  1  6
 26 25  1  6
 26  5  1  0
 26 10  1  0
 24 12  1  0
 23 15  1  0
 23 18  1  0
M  END
> <Identifier>
Drug_198

> <Carcinogen>
0

$$$$

     RDKit          2D

 26 28  0  0  0  0  0  0  0  0999 V2000
   -3.1895   -3.5841    0.0000 C   0  0  0  0  0  0  0  0  0  0  0  0
   -2.8510   -2.1228    0.0000 O   0  0  0  0  0  0  0  0  0  0  0  0
   -3.9472   -1.0990    0.0000 C   0  0  0  0  0  0  0  0  0  0  0  0
   -5.3820   -1.5365    0.0000 C   0  0  0  0  0  0  0  0  0  0  0  0
   -6.4783   -0.5126    0.0000 C   0  0  0  0  0  0  0  0  0  0  0  0
   -7.9131   -0.9501    0.0000 N   0  0  0  0  0  0  0  0  0  0  0  0
   -6.1397    0.9487    0.0000 C   0  0  0  0  0  0  0  0  0  0  0  0
   -7.2360    1.9725    0.0000 Cl  0  0  0  0  0  0  0  0  0  0  0  0
   -4.7049    1.3861    0.0000 C   0  0  0  0  0  0  0  0  0  0  0  0
   -3.6087    0.3623    0.0000 C   0  0  0  0  0  0  0  0  0  0  0  0
   -2.1739    0.7997    0.0000 C   0  0  0  0  0  0  0  0  0  0  0  0
   -1.8353    2.2610    0.0000 O   0  0  0  0  0  0  0  0  0  0  0  0
   -1.0776   -0.2241    0.0000 N   0  0  0  0  0  0  0  0  0  0  0  0
    0.3571    0.2134    0.0000 C   0  0  0  0  0  0  0  0  0  0  0  0
    1.4534   -0.8105    0.0000 C   0  0  0  0  0  0  0  0  0  0  0  0
    2.8882   -0.3730    0.0000 C   0  0  0  0  0  0  0  0  0  0  0  0
    3.2267    1.0883    0.0000 N   0  0  0  0  0  0  0  0  0  0  0  0
    4.6615    1.5257    0.0000 C   0  0  0  0  0  0  0  0  0  0  0  0
    5.7578    0.5019    0.0000 C   0  0  0  0  0  0  0  0  0  0  0  0
    5.4192   -0.9594    0.0000 C   0  0  0  0  0  0  0  0  0  0  0  0
    6.5155   -1.9833    0.0000 C   0  0  0  0  0  0  0  0  0  0  0  0
    7.9503   -1.5458    0.0000 C   0  0  0  0  0  0  0  0  0  0  0  0
    8.2888   -0.0845    0.0000 C   0  0  0  0  0  0  0  0  0  0  0  0
    7.1926    0.9393    0.0000 C   0  0  0  0  0  0  0  0  0  0  0  0
    2.1305    2.1121    0.0000 C   0  0  0  0  0  0  0  0  0  0  0  0
    0.6957    1.6747    0.0000 C   0  0  0  0  0  0  0  0  0  0  0  0
  1  2  1  0
  2  3  1  0
  3  4  2  0
  4  5  1  0
  5  6  1  0
  5  7  2  0
  7  8  1  0
  7  9  1  0
  9 10  2  0
 10 11  1  0
 11 12  2  0
 11 13  1  0
 13 14  1  0
 14 15  1  0
 15 16  1  0
 16 17  1  0
 17 18  1  0
 18 19  1  0
 19 20  2  0
 20 21  1  0
 21 22  2  0
 22 23  1  0
 23 24  2  0
 17 25  1  0
 25 26  1  0
 10  3  1  0
 26 14  1  0
 24 19  1  0
M  END
> <Identifier>
Drug_199

> <Carcinogen>
0

$$$$

     RDKit          2D

 33 36  0  0  0  0  0  0  0  0999 V2000
   -3.0978    3.6919    0.0000 C   0  0  0  0  0  0  0  0  0  0  0  0
   -2.2201    2.4755    0.0000 C   0  0  0  0  0  0  0  0  0  0  0  0
   -2.8347    1.1072    0.0000 C   0  0  0  0  0  0  0  0  0  0  0  0
   -4.3270    0.9552    0.0000 C   0  0  0  0  0  0  0  0  0  0  0  0
   -4.9416   -0.4131    0.0000 C   0  0  0  0  0  0  0  0  0  0  0  0
   -4.0639   -1.6295    0.0000 O   0  0  0  0  0  0  0  0  0  0  0  0
   -6.4339   -0.5650    0.0000 N   0  0  0  0  0  0  0  0  0  0  0  0
   -7.0484   -1.9333    0.0000 C   0  0  0  0  0  0  0  0  0  0  0  0
   -8.5407   -2.0852    0.0000 C   0  0  0  0  0  0  0  0  0  0  0  0
   -9.4184   -0.8688    0.0000 O   0  0  0  0  0  0  0  0  0  0  0  0
   -9.1553   -3.4535    0.0000 O   0  0  0  0  0  0  0  0  0  0  0  0
   -0.7278    2.6274    0.0000 C   0  0  0  0  0  0  0  0  0  0  0  0
    0.0264    3.9240    0.0000 C   0  0  0  0  0  0  0  0  0  0  0  0
    1.4926    3.6073    0.0000 C   0  0  0  0  0  0  0  0  0  0  0  0
    1.6445    2.1150    0.0000 C   0  0  0  0  0  0  0  0  0  0  0  0
    2.8552    1.2294    0.0000 C   0  0  0  0  0  0  0  0  0  0  0  0
    2.6935   -0.2619    0.0000 C   0  0  0  0  0  0  0  0  0  0  0  0
    1.3212   -0.8675    0.0000 C   0  0  0  0  0  0  0  0  0  0  0  0
    0.1105    0.0181    0.0000 C   0  0  0  0  0  0  0  0  0  0  0  0
   -1.2618   -0.5875    0.0000 O   0  0  0  0  0  0  0  0  0  0  0  0
    0.2722    1.5094    0.0000 C   0  0  0  0  0  0  0  0  0  0  0  0
   -1.1559    1.0505    0.0000 C   0  0  0  0  0  0  0  0  0  0  0  0
    3.9041   -1.1475    0.0000 C   0  0  0  0  0  0  0  0  0  0  0  0
    2.5318   -1.7531    0.0000 C   0  0  0  0  0  0  0  0  0  0  0  0
    3.7425   -2.6388    0.0000 C   0  0  0  0  0  0  0  0  0  0  0  0
    4.9531   -3.5244    0.0000 C   0  0  0  0  0  0  0  0  0  0  0  0
    6.3254   -2.9188    0.0000 C   0  0  0  0  0  0  0  0  0  0  0  0
    7.5360   -3.8044    0.0000 O   0  0  0  0  0  0  0  0  0  0  0  0
    6.4871   -1.4275    0.0000 C   0  0  0  0  0  0  0  0  0  0  0  0
    5.2764   -0.5419    0.0000 C   0  0  0  0  0  0  0  0  0  0  0  0
    5.4381    0.9494    0.0000 C   0  0  0  0  0  0  0  0  0  0  0  0
    4.2275    1.8350    0.0000 C   0  0  0  0  0  0  0  0  0  0  0  0
    4.3891    3.3263    0.0000 O   0  0  0  0  0  0  0  0  0  0  0  0
  2  1  1  1
  2  3  1  0
  3  4  1  0
  4  5  1  0
  5  6  2  0
  5  7  1  0
  7  8  1  0
  8  9  1  0
  9 10  2  0
  9 11  1  0
  2 12  1  0
 12 13  1  1
 13 14  1  0
 15 14  1  1
 15 16  1  0
 16 17  1  0
 17 18  1  1
 18 19  1  0
 19 20  1  6
 19 21  1  0
 21 22  1  1
 17 23  1  0
 23 24  1  1
 23 25  1  0
 25 26  1  0
 26 27  1  0
 27 28  1  6
 27 29  1  0
 30 29  1  6
 30 31  1  0
 31 32  1  0
 32 33  1  6
 21 12  1  0
 30 23  1  0
 21 15  1  0
 16 32  1  6
M  END
> <Identifier>
Drug_200

> <Carcinogen>
0

$$$$

     RDKit          2D

 18 19  0  0  0  0  0  0  0  0999 V2000
   -4.8560    1.6613    0.0000 C   0  0  0  0  0  0  0  0  0  0  0  0
   -3.4029    2.0336    0.0000 N   0  0  0  0  0  0  0  0  0  0  0  0
   -2.9988    3.4782    0.0000 C   0  0  0  0  0  0  0  0  0  0  0  0
   -2.3539    0.9614    0.0000 C   0  0  0  0  0  0  0  0  0  0  0  0
   -0.9009    1.3337    0.0000 C   0  0  0  0  0  0  0  0  0  0  0  0
    0.1481    0.2614    0.0000 C   0  0  0  0  0  0  0  0  0  0  0  0
    1.6011    0.6337    0.0000 C   0  0  0  0  0  0  0  0  0  0  0  0
    2.6501   -0.4385    0.0000 C   0  0  0  0  0  0  0  0  0  0  0  0
    4.1032   -0.0662    0.0000 C   0  0  0  0  0  0  0  0  0  0  0  0
    4.5073    1.3783    0.0000 C   0  0  0  0  0  0  0  0  0  0  0  0
    3.4583    2.4506    0.0000 C   0  0  0  0  0  0  0  0  0  0  0  0
    2.0053    2.0783    0.0000 C   0  0  0  0  0  0  0  0  0  0  0  0
   -0.2560   -1.1831    0.0000 C   0  0  0  0  0  0  0  0  0  0  0  0
   -1.7091   -1.5554    0.0000 C   0  0  0  0  0  0  0  0  0  0  0  0
   -2.1132   -2.9999    0.0000 C   0  0  0  0  0  0  0  0  0  0  0  0
   -1.0643   -4.0722    0.0000 C   0  0  0  0  0  0  0  0  0  0  0  0
    0.3888   -3.6999    0.0000 C   0  0  0  0  0  0  0  0  0  0  0  0
    0.7929   -2.2553    0.0000 N   0  0  0  0  0  0  0  0  0  0  0  0
  1  2  1  0
  2  3  1  0
  2  4  1  0
  4  5  1  0
  5  6  1  0
  6  7  1  0
  7  8  2  0
  8  9  1  0
  9 10  2  0
 10 11  1  0
 11 12  2  0
  6 13  1  0
 13 14  2  0
 14 15  1  0
 15 16  2  0
 16 17  1  0
 17 18  2  0
 12  7  1  0
 18 13  1  0
M  END
> <Identifier>
Drug_201

> <Carcinogen>
0

$$$$

     RDKit          2D

 81 81  0  0  0  0  0  0  0  0999 V2000
    2.1361    8.6719    0.0000 C   0  0  0  0  0  0  0  0  0  0  0  0
    2.4654    7.2085    0.0000 C   0  0  0  0  0  0  0  0  0  0  0  0
    1.3627    6.1916    0.0000 C   0  0  0  0  0  0  0  0  0  0  0  0
    3.8974    6.7619    0.0000 C   0  0  0  0  0  0  0  0  0  0  0  0
    4.2267    5.2985    0.0000 C   0  0  0  0  0  0  0  0  0  0  0  0
    5.6587    4.8520    0.0000 C   0  0  0  0  0  0  0  0  0  0  0  0
    5.9881    3.3886    0.0000 C   0  0  0  0  0  0  0  0  0  0  0  0
    7.4201    2.9421    0.0000 C   0  0  0  0  0  0  0  0  0  0  0  0
    8.5228    3.9590    0.0000 O   0  0  0  0  0  0  0  0  0  0  0  0
    7.7494    1.4787    0.0000 N   0  0  0  0  0  0  0  0  0  0  0  0
    9.1814    1.0322    0.0000 C   0  0  0  0  0  0  0  0  0  0  0  0
   10.2841    2.0491    0.0000 C   0  0  0  0  0  0  0  0  0  0  0  0
    9.9548    3.5125    0.0000 C   0  0  0  0  0  0  0  0  0  0  0  0
   11.0574    4.5294    0.0000 N   0  0  0  0  0  0  0  0  0  0  0  0
    9.5107   -0.4312    0.0000 C   0  0  0  0  0  0  0  0  0  0  0  0
   10.9427   -0.8777    0.0000 O   0  0  0  0  0  0  0  0  0  0  0  0
    8.4080   -1.4481    0.0000 N   0  0  0  0  0  0  0  0  0  0  0  0
    8.7373   -2.9115    0.0000 C   0  0  0  0  0  0  0  0  0  0  0  0
    7.6346   -3.9284    0.0000 C   0  0  0  0  0  0  0  0  0  0  0  0
    7.9640   -5.3918    0.0000 O   0  0  0  0  0  0  0  0  0  0  0  0
    6.2026   -3.4819    0.0000 N   0  0  0  0  0  0  0  0  0  0  0  0
    5.0999   -4.4988    0.0000 C   0  0  0  0  0  0  0  0  0  0  0  0
    5.4293   -5.9622    0.0000 C   0  0  0  0  0  0  0  0  0  0  0  0
    6.8613   -6.4087    0.0000 C   0  0  0  0  0  0  0  0  0  0  0  0
    7.1906   -7.8721    0.0000 N   0  0  0  0  0  0  0  0  0  0  0  0
    3.6679   -4.0523    0.0000 C   0  0  0  0  0  0  0  0  0  0  0  0
    2.5653   -5.0692    0.0000 O   0  0  0  0  0  0  0  0  0  0  0  0
    3.3386   -2.5889    0.0000 N   0  0  0  0  0  0  0  0  0  0  0  0
    1.9066   -2.1424    0.0000 C   0  0  0  0  0  0  0  0  0  0  0  0
    1.2770   -3.5038    0.0000 C   0  0  0  0  0  0  0  0  0  0  0  0
    0.3165   -4.6560    0.0000 C   0  0  0  0  0  0  0  0  0  0  0  0
   -0.9095   -5.5202    0.0000 N   0  0  0  0  0  0  0  0  0  0  0  0
   -2.3174   -6.0377    0.0000 C   0  0  0  0  0  0  0  0  0  0  0  0
   -1.9881   -7.5011    0.0000 O   0  0  0  0  0  0  0  0  0  0  0  0
   -3.8113   -6.1732    0.0000 C   0  0  0  0  0  0  0  0  0  0  0  0
   -3.8719   -7.6720    0.0000 C   0  0  0  0  0  0  0  0  0  0  0  0
   -5.2002   -8.3688    0.0000 C   0  0  0  0  0  0  0  0  0  0  0  0
   -2.6043   -8.4739    0.0000 O   0  0  0  0  0  0  0  0  0  0  0  0
   -5.2893   -5.9175    0.0000 N   0  0  0  0  0  0  0  0  0  0  0  0
   -6.6508   -5.2879    0.0000 C   0  0  0  0  0  0  0  0  0  0  0  0
   -7.4527   -6.5555    0.0000 O   0  0  0  0  0  0  0  0  0  0  0  0
   -7.8029   -4.3273    0.0000 C   0  0  0  0  0  0  0  0  0  0  0  0
   -8.9056   -5.3442    0.0000 C   0  0  0  0  0  0  0  0  0  0  0  0
  -10.3376   -4.8977    0.0000 C   0  0  0  0  0  0  0  0  0  0  0  0
  -11.4403   -5.9146    0.0000 N   0  0  0  0  0  0  0  0  0  0  0  0
   -8.6671   -3.1013    0.0000 N   0  0  0  0  0  0  0  0  0  0  0  0
   -9.1847   -1.6934    0.0000 C   0  0  0  0  0  0  0  0  0  0  0  0
  -10.6481   -2.0228    0.0000 O   0  0  0  0  0  0  0  0  0  0  0  0
   -9.3201   -0.1996    0.0000 C   0  0  0  0  0  0  0  0  0  0  0  0
  -10.8189   -0.1389    0.0000 C   0  0  0  0  0  0  0  0  0  0  0  0
  -11.5158    1.1894    0.0000 C   0  0  0  0  0  0  0  0  0  0  0  0
  -13.0145    1.2501    0.0000 N   0  0  0  0  0  0  0  0  0  0  0  0
   -9.0644    1.2785    0.0000 N   0  0  0  0  0  0  0  0  0  0  0  0
   -8.4348    2.6399    0.0000 C   0  0  0  0  0  0  0  0  0  0  0  0
   -9.7024    3.4419    0.0000 O   0  0  0  0  0  0  0  0  0  0  0  0
   -7.4742    3.7921    0.0000 C   0  0  0  0  0  0  0  0  0  0  0  0
   -8.4911    4.8947    0.0000 C   0  0  0  0  0  0  0  0  0  0  0  0
   -8.0446    6.3267    0.0000 C   0  0  0  0  0  0  0  0  0  0  0  0
   -9.9545    4.5654    0.0000 C   0  0  0  0  0  0  0  0  0  0  0  0
   -6.2483    4.6563    0.0000 C   0  0  0  0  0  0  0  0  0  0  0  0
   -4.8404    5.1738    0.0000 N   0  0  0  0  0  0  0  0  0  0  0  0
   -3.3465    5.3093    0.0000 C   0  0  0  0  0  0  0  0  0  0  0  0
   -3.4567    6.6548    0.0000 O   0  0  0  0  0  0  0  0  0  0  0  0
   -1.8685    5.0535    0.0000 C   0  0  0  0  0  0  0  0  0  0  0  0
   -1.4220    6.4855    0.0000 C   0  0  0  0  0  0  0  0  0  0  0  0
   -2.4388    7.5882    0.0000 C   0  0  0  0  0  0  0  0  0  0  0  0
   -3.7822    7.4546    0.0000 C   0  0  0  0  0  0  0  0  0  0  0  0
   -1.9923    9.0202    0.0000 C   0  0  0  0  0  0  0  0  0  0  0  0
   -0.5070    4.4239    0.0000 N   0  0  0  0  0  0  0  0  0  0  0  0
    0.6451    3.4634    0.0000 C   0  0  0  0  0  0  0  0  0  0  0  0
    1.7478    4.4803    0.0000 O   0  0  0  0  0  0  0  0  0  0  0  0
    1.5094    2.2374    0.0000 C   0  0  0  0  0  0  0  0  0  0  0  0
    2.8377    2.9343    0.0000 C   0  0  0  0  0  0  0  0  0  0  0  0
    4.1054    2.1324    0.0000 C   0  0  0  0  0  0  0  0  0  0  0  0
    5.2256    3.1299    0.0000 N   0  0  0  0  0  0  0  0  0  0  0  0
    2.0269    0.8295    0.0000 N   0  0  0  0  0  0  0  0  0  0  0  0
    2.1624   -0.6643    0.0000 C   0  0  0  0  0  0  0  0  0  0  0  0
    3.6612   -0.7250    0.0000 O   0  0  0  0  0  0  0  0  0  0  0  0
   10.1693   -3.3580    0.0000 C   0  0  0  0  0  0  0  0  0  0  0  0
   11.2720   -2.3411    0.0000 C   0  0  0  0  0  0  0  0  0  0  0  0
   10.4986   -4.8214    0.0000 O   0  0  0  0  0  0  0  0  0  0  0  0
  1  2  1  0
  2  3  1  0
  2  4  1  0
  4  5  1  0
  5  6  1  0
  6  7  1  0
  7  8  1  0
  8  9  2  0
  8 10  1  0
 10 11  1  0
 11 12  1  0
 12 13  1  0
 13 14  1  0
 11 15  1  0
 15 16  2  0
 15 17  1  0
 17 18  1  0
 18 19  1  0
 19 20  2  0
 19 21  1  0
 21 22  1  0
 22 23  1  0
 23 24  1  0
 24 25  1  0
 22 26  1  0
 26 27  2  0
 26 28  1  0
 28 29  1  0
 29 30  1  0
 30 31  1  0
 31 32  1  0
 32 33  1  0
 33 34  2  0
 33 35  1  0
 35 36  1  0
 36 37  1  0
 36 38  1  0
 35 39  1  0
 39 40  1  0
 40 41  2  0
 40 42  1  0
 42 43  1  0
 43 44  1  0
 44 45  1  0
 42 46  1  0
 46 47  1  0
 47 48  2  0
 47 49  1  0
 49 50  1  0
 50 51  1  0
 51 52  1  0
 49 53  1  0
 53 54  1  0
 54 55  2  0
 54 56  1  0
 56 57  1  0
 57 58  1  0
 57 59  1  0
 56 60  1  0
 60 61  1  0
 61 62  1  0
 62 63  2  0
 62 64  1  0
 64 65  1  0
 65 66  1  0
 66 67  1  0
 66 68  1  0
 64 69  1  0
 69 70  1  0
 70 71  2  0
 70 72  1  0
 72 73  1  0
 73 74  1  0
 74 75  1  0
 72 76  1  0
 76 77  1  0
 77 78  2  0
 18 79  1  0
 79 80  1  0
 79 81  1  0
 77 29  1  0
M  END
> <Identifier>
Drug_202

> <Carcinogen>
0

$$$$

     RDKit          2D

 12 12  0  0  0  0  0  0  0  0999 V2000
   -3.8243   -1.5611    0.0000 N   0  0  0  0  0  0  0  0  0  0  0  0
   -3.5433   -0.0877    0.0000 C   0  0  0  0  0  0  0  0  0  0  0  0
   -4.6788    0.8925    0.0000 N   0  0  0  0  0  0  0  0  0  0  0  0
   -2.1267    0.4057    0.0000 N   0  0  0  0  0  0  0  0  0  0  0  0
   -0.9912   -0.5745    0.0000 C   0  0  0  0  0  0  0  0  0  0  0  0
    0.4253   -0.0811    0.0000 C   0  0  0  0  0  0  0  0  0  0  0  0
    0.7064    1.3923    0.0000 C   0  0  0  0  0  0  0  0  0  0  0  0
    2.1230    1.8856    0.0000 C   0  0  0  0  0  0  0  0  0  0  0  0
    3.2585    0.9055    0.0000 C   0  0  0  0  0  0  0  0  0  0  0  0
    2.9774   -0.5679    0.0000 C   0  0  0  0  0  0  0  0  0  0  0  0
    4.1129   -1.5480    0.0000 I   0  0  0  0  0  0  0  0  0  0  0  0
    1.5608   -1.0612    0.0000 C   0  0  0  0  0  0  0  0  0  0  0  0
  1  2  2  0
  2  3  1  0
  2  4  1  0
  4  5  1  0
  5  6  1  0
  6  7  2  0
  7  8  1  0
  8  9  2  0
  9 10  1  0
 10 11  1  0
 10 12  2  0
 12  6  1  0
M  END
> <Identifier>
Drug_203

> <Carcinogen>
0

$$$$

     RDKit          2D

 11 10  0  0  0  0  0  0  0  0999 V2000
   -3.8258    0.7452    0.0000 C   0  0  0  0  0  0  0  0  0  0  0  0
   -2.4875    0.0678    0.0000 S   0  0  0  0  0  0  0  0  0  0  0  0
   -3.1649   -1.2706    0.0000 N   0  0  0  0  0  0  0  0  0  0  0  0
   -1.8101    1.4061    0.0000 O   0  0  0  0  0  0  0  0  0  0  0  0
   -1.1491   -0.6096    0.0000 C   0  0  0  0  0  0  0  0  0  0  0  0
    0.1067    0.2107    0.0000 C   0  0  0  0  0  0  0  0  0  0  0  0
    1.4450   -0.4666    0.0000 C   0  0  0  0  0  0  0  0  0  0  0  0
    1.5275   -1.9644    0.0000 N   0  0  0  0  0  0  0  0  0  0  0  0
    2.7008    0.3537    0.0000 C   0  0  0  0  0  0  0  0  0  0  0  0
    2.6183    1.8514    0.0000 O   0  0  0  0  0  0  0  0  0  0  0  0
    4.0391   -0.3237    0.0000 O   0  0  0  0  0  0  0  0  0  0  0  0
  1  2  1  0
  2  3  2  0
  2  4  2  0
  2  5  1  0
  5  6  1  0
  6  7  1  0
  7  8  1  1
  7  9  1  0
  9 10  2  0
  9 11  1  0
M  END
> <Identifier>
Drug_204

> <Carcinogen>
0

$$$$

     RDKit          2D

 20 22  0  0  0  0  0  0  0  0999 V2000
   -5.9628   -2.5182    0.0000 C   0  0  0  0  0  0  0  0  0  0  0  0
   -4.8630   -1.4982    0.0000 N   0  0  0  0  0  0  0  0  0  0  0  0
   -3.4297   -1.9407    0.0000 C   0  0  0  0  0  0  0  0  0  0  0  0
   -2.3299   -0.9207    0.0000 C   0  0  0  0  0  0  0  0  0  0  0  0
   -0.8967   -1.3631    0.0000 C   0  0  0  0  0  0  0  0  0  0  0  0
    0.2031   -0.3431    0.0000 C   0  0  0  0  0  0  0  0  0  0  0  0
    1.5993   -0.8914    0.0000 C   0  0  0  0  0  0  0  0  0  0  0  0
    1.5990   -2.3914    0.0000 C   0  0  0  0  0  0  0  0  0  0  0  0
    2.8979   -3.1417    0.0000 C   0  0  0  0  0  0  0  0  0  0  0  0
    4.1971   -2.3920    0.0000 C   0  0  0  0  0  0  0  0  0  0  0  0
    4.1974   -0.8920    0.0000 C   0  0  0  0  0  0  0  0  0  0  0  0
    2.8985   -0.1417    0.0000 C   0  0  0  0  0  0  0  0  0  0  0  0
    3.1224    1.3415    0.0000 C   0  0  0  0  0  0  0  0  0  0  0  0
    2.1024    2.4413    0.0000 C   0  0  0  0  0  0  0  0  0  0  0  0
    0.6066    2.3295    0.0000 C   0  0  0  0  0  0  0  0  0  0  0  0
   -0.0439    3.6811    0.0000 C   0  0  0  0  0  0  0  0  0  0  0  0
   -1.5397    3.7935    0.0000 C   0  0  0  0  0  0  0  0  0  0  0  0
   -2.3850    2.5544    0.0000 C   0  0  0  0  0  0  0  0  0  0  0  0
   -1.7344    1.2028    0.0000 C   0  0  0  0  0  0  0  0  0  0  0  0
   -0.2387    1.0903    0.0000 C   0  0  0  0  0  0  0  0  0  0  0  0
  1  2  1  0
  2  3  1  0
  3  4  1  0
  4  5  1  0
  5  6  2  0
  6  7  1  0
  7  8  2  0
  8  9  1  0
  9 10  2  0
 10 11  1  0
 11 12  2  0
 12 13  1  0
 13 14  2  0
 14 15  1  0
 15 16  2  0
 16 17  1  0
 17 18  2  0
 18 19  1  0
 19 20  2  0
 20  6  1  0
 12  7  1  0
 20 15  1  0
M  END
> <Identifier>
Drug_205

> <Carcinogen>
0

$$$$

     RDKit          2D

 60 65  0  0  0  0  0  0  0  0999 V2000
   -2.1343    4.2417    0.0000 C   0  0  0  0  0  0  0  0  0  0  0  0
   -3.1471    3.1353    0.0000 O   0  0  0  0  0  0  0  0  0  0  0  0
   -2.6954    1.7049    0.0000 C   0  0  0  0  0  0  0  0  0  0  0  0
   -1.2308    1.3809    0.0000 C   0  0  0  0  0  0  0  0  0  0  0  0
   -0.7791   -0.0494    0.0000 C   0  0  0  0  0  0  0  0  0  0  0  0
    0.6855   -0.3734    0.0000 C   0  0  0  0  0  0  0  0  0  0  0  0
    1.1373   -1.8037    0.0000 C   0  0  0  0  0  0  0  0  0  0  0  0
    2.6019   -2.1277    0.0000 C   0  0  0  0  0  0  0  0  0  0  0  0
    3.6147   -1.0213    0.0000 C   0  0  0  0  0  0  0  0  0  0  0  0
    5.0793   -1.3453    0.0000 N   0  0  0  0  0  0  0  0  0  0  0  0
    6.0922   -0.2389    0.0000 N   0  0  0  0  0  0  0  0  0  0  0  0
    7.5568   -0.5628    0.0000 C   0  0  0  0  0  0  0  0  0  0  0  0
    8.0085   -1.9932    0.0000 C   0  0  0  0  0  0  0  0  0  0  0  0
    9.4731   -2.3172    0.0000 C   0  0  0  0  0  0  0  0  0  0  0  0
   10.4860   -1.2108    0.0000 C   0  0  0  0  0  0  0  0  0  0  0  0
   11.9506   -1.5347    0.0000 C   0  0  0  0  0  0  0  0  0  0  0  0
   12.4023   -2.9651    0.0000 S   0  0  0  0  0  0  0  0  0  0  0  0
   13.8327   -2.5134    0.0000 O   0  0  0  0  0  0  0  0  0  0  0  0
   10.9720   -3.4168    0.0000 O   0  0  0  0  0  0  0  0  0  0  0  0
   12.8541   -4.3955    0.0000 O   0  0  0  0  0  0  0  0  0  0  0  0
   12.9634   -0.4283    0.0000 C   0  0  0  0  0  0  0  0  0  0  0  0
   12.5117    1.0020    0.0000 C   0  0  0  0  0  0  0  0  0  0  0  0
   13.5246    2.1084    0.0000 S   0  0  0  0  0  0  0  0  0  0  0  0
   14.6310    1.0956    0.0000 O   0  0  0  0  0  0  0  0  0  0  0  0
   12.4182    3.1213    0.0000 O   0  0  0  0  0  0  0  0  0  0  0  0
   14.5374    3.2148    0.0000 O   0  0  0  0  0  0  0  0  0  0  0  0
   11.0471    1.3260    0.0000 C   0  0  0  0  0  0  0  0  0  0  0  0
   10.5954    2.7563    0.0000 N   0  0  0  0  0  0  0  0  0  0  0  0
   10.0342    0.2196    0.0000 C   0  0  0  0  0  0  0  0  0  0  0  0
    8.5697    0.5436    0.0000 C   0  0  0  0  0  0  0  0  0  0  0  0
    8.1179    1.9739    0.0000 O   0  0  0  0  0  0  0  0  0  0  0  0
    3.1630    0.4091    0.0000 C   0  0  0  0  0  0  0  0  0  0  0  0
    4.1759    1.5155    0.0000 O   0  0  0  0  0  0  0  0  0  0  0  0
    3.7241    2.9458    0.0000 C   0  0  0  0  0  0  0  0  0  0  0  0
    1.6984    0.7330    0.0000 C   0  0  0  0  0  0  0  0  0  0  0  0
   -1.7919   -1.1558    0.0000 C   0  0  0  0  0  0  0  0  0  0  0  0
   -3.2565   -0.8318    0.0000 C   0  0  0  0  0  0  0  0  0  0  0  0
   -3.7083    0.5985    0.0000 C   0  0  0  0  0  0  0  0  0  0  0  0
   -5.1729    0.9225    0.0000 N   0  0  0  0  0  0  0  0  0  0  0  0
   -6.1857   -0.1839    0.0000 N   0  0  0  0  0  0  0  0  0  0  0  0
   -7.6503    0.1400    0.0000 C   0  0  0  0  0  0  0  0  0  0  0  0
   -8.1020    1.5704    0.0000 C   0  0  0  0  0  0  0  0  0  0  0  0
   -9.5666    1.8944    0.0000 C   0  0  0  0  0  0  0  0  0  0  0  0
  -10.5795    0.7880    0.0000 C   0  0  0  0  0  0  0  0  0  0  0  0
  -12.0441    1.1119    0.0000 C   0  0  0  0  0  0  0  0  0  0  0  0
  -12.4958    2.5423    0.0000 S   0  0  0  0  0  0  0  0  0  0  0  0
  -13.9262    2.0906    0.0000 O   0  0  0  0  0  0  0  0  0  0  0  0
  -11.0655    2.9940    0.0000 O   0  0  0  0  0  0  0  0  0  0  0  0
  -12.9476    3.9727    0.0000 O   0  0  0  0  0  0  0  0  0  0  0  0
  -13.0570    0.0055    0.0000 C   0  0  0  0  0  0  0  0  0  0  0  0
  -12.6052   -1.4248    0.0000 C   0  0  0  0  0  0  0  0  0  0  0  0
  -13.6181   -2.5312    0.0000 S   0  0  0  0  0  0  0  0  0  0  0  0
  -14.7245   -1.5184    0.0000 O   0  0  0  0  0  0  0  0  0  0  0  0
  -12.5117   -3.5441    0.0000 O   0  0  0  0  0  0  0  0  0  0  0  0
  -14.6309   -3.6376    0.0000 O   0  0  0  0  0  0  0  0  0  0  0  0
  -11.1406   -1.7488    0.0000 C   0  0  0  0  0  0  0  0  0  0  0  0
  -10.6889   -3.1791    0.0000 N   0  0  0  0  0  0  0  0  0  0  0  0
  -10.1278   -0.6424    0.0000 C   0  0  0  0  0  0  0  0  0  0  0  0
   -8.6632   -0.9663    0.0000 C   0  0  0  0  0  0  0  0  0  0  0  0
   -8.2114   -2.3967    0.0000 O   0  0  0  0  0  0  0  0  0  0  0  0
  1  2  1  0
  2  3  1  0
  3  4  2  0
  4  5  1  0
  5  6  1  0
  6  7  2  0
  7  8  1  0
  8  9  2  0
  9 10  1  0
 10 11  2  0
 11 12  1  0
 12 13  2  0
 13 14  1  0
 14 15  2  0
 15 16  1  0
 16 17  1  0
 17 18  2  0
 17 19  2  0
 17 20  1  0
 16 21  2  0
 21 22  1  0
 22 23  1  0
 23 24  2  0
 23 25  2  0
 23 26  1  0
 22 27  2  0
 27 28  1  0
 27 29  1  0
 29 30  2  0
 30 31  1  0
  9 32  1  0
 32 33  1  0
 33 34  1  0
 32 35  2  0
  5 36  2  0
 36 37  1  0
 37 38  2  0
 38 39  1  0
 39 40  2  0
 40 41  1  0
 41 42  2  0
 42 43  1  0
 43 44  2  0
 44 45  1  0
 45 46  1  0
 46 47  2  0
 46 48  2  0
 46 49  1  0
 45 50  2  0
 50 51  1  0
 51 52  1  0
 52 53  2  0
 52 54  2  0
 52 55  1  0
 51 56  2  0
 56 57  1  0
 56 58  1  0
 58 59  2  0
 59 60  1  0
 38  3  1  0
 59 41  1  0
 35  6  1  0
 58 44  1  0
 30 12  1  0
 29 15  1  0
M  END
> <Identifier>
Drug_206

> <Carcinogen>
0

$$$$

     RDKit          2D

 23 25  0  0  0  0  0  0  0  0999 V2000
   -7.5207   -2.8131    0.0000 O   0  0  0  0  0  0  0  0  0  0  0  0
   -6.7601   -1.5202    0.0000 C   0  0  0  0  0  0  0  0  0  0  0  0
   -5.2671   -1.3756    0.0000 C   0  0  0  0  0  0  0  0  0  0  0  0
   -4.9432    0.0890    0.0000 N   0  0  0  0  0  0  0  0  0  0  0  0
   -3.5680    0.6879    0.0000 N   0  0  0  0  0  0  0  0  0  0  0  0
   -2.3617   -0.2037    0.0000 C   0  0  0  0  0  0  0  0  0  0  0  0
   -0.9864    0.3952    0.0000 C   0  0  0  0  0  0  0  0  0  0  0  0
   -0.6626    1.8598    0.0000 C   0  0  0  0  0  0  0  0  0  0  0  0
    0.8304    2.0044    0.0000 C   0  0  0  0  0  0  0  0  0  0  0  0
    1.4293    0.6291    0.0000 C   0  0  0  0  0  0  0  0  0  0  0  0
    2.8939    0.3053    0.0000 C   0  0  0  0  0  0  0  0  0  0  0  0
    3.3458   -1.1251    0.0000 C   0  0  0  0  0  0  0  0  0  0  0  0
    4.8104   -1.4489    0.0000 C   0  0  0  0  0  0  0  0  0  0  0  0
    5.8232   -0.3425    0.0000 C   0  0  0  0  0  0  0  0  0  0  0  0
    7.2878   -0.6663    0.0000 N   0  0  0  0  0  4  0  0  0  0  0  0
    8.3006    0.4401    0.0000 O   0  0  0  0  0  0  0  0  0  0  0  0
    7.7396   -2.0967    0.0000 O   0  0  0  0  0  1  0  0  0  0  0  0
    5.3713    1.0879    0.0000 C   0  0  0  0  0  0  0  0  0  0  0  0
    3.9067    1.4117    0.0000 C   0  0  0  0  0  0  0  0  0  0  0  0
    0.3064   -0.3654    0.0000 O   0  0  0  0  0  0  0  0  0  0  0  0
   -6.2361    0.8496    0.0000 C   0  0  0  0  0  0  0  0  0  0  0  0
   -6.3807    2.3426    0.0000 O   0  0  0  0  0  0  0  0  0  0  0  0
   -7.3590   -0.1450    0.0000 N   0  0  0  0  0  0  0  0  0  0  0  0
  1  2  2  0
  2  3  1  0
  3  4  1  0
  4  5  1  0
  5  6  2  0
  6  7  1  0
  7  8  2  0
  8  9  1  0
  9 10  2  0
 10 11  1  0
 11 12  2  0
 12 13  1  0
 13 14  2  0
 14 15  1  0
 15 16  2  0
 15 17  1  0
 14 18  1  0
 18 19  2  0
 10 20  1  0
  4 21  1  0
 21 22  1  0
 21 23  2  0
 23  2  1  0
 20  7  1  0
 19 11  1  0
M  CHG  2  15   1  17  -1
M  END
> <Identifier>
Drug_207

> <Carcinogen>
0

$$$$

     RDKit          2D

 14 14  0  0  0  0  0  0  0  0999 V2000
   -2.0094    1.6916    0.0000 N   0  0  0  0  0  0  0  0  0  0  0  0
   -2.3243    0.2250    0.0000 C   0  0  0  0  0  0  0  0  0  0  0  0
   -1.2116   -0.7809    0.0000 C   0  0  0  0  0  0  0  0  0  0  0  0
    0.2159   -0.3203    0.0000 N   0  0  0  0  0  0  0  0  0  0  0  0
    0.5308    1.1463    0.0000 C   0  0  0  0  0  0  0  0  0  0  0  0
    1.9583    1.6069    0.0000 C   0  0  0  0  0  0  0  0  0  0  0  0
    3.0710    0.6009    0.0000 C   0  0  0  0  0  0  0  0  0  0  0  0
    4.4985    1.0615    0.0000 O   0  0  0  0  0  0  0  0  0  0  0  0
    2.7561   -0.8657    0.0000 C   0  0  0  0  0  0  0  0  0  0  0  0
    3.8688   -1.8716    0.0000 O   0  0  0  0  0  0  0  0  0  0  0  0
    1.3286   -1.3263    0.0000 C   0  0  0  0  0  0  0  0  0  0  0  0
   -3.7518   -0.2356    0.0000 C   0  0  0  0  0  0  0  0  0  0  0  0
   -4.0666   -1.7022    0.0000 O   0  0  0  0  0  0  0  0  0  0  0  0
   -4.8644    0.7704    0.0000 O   0  0  0  0  0  0  0  0  0  0  0  0
  2  1  1  1
  2  3  1  0
  3  4  1  0
  4  5  1  0
  5  6  2  0
  6  7  1  0
  7  8  2  0
  7  9  1  0
  9 10  1  0
  9 11  2  0
  2 12  1  0
 12 13  2  0
 12 14  1  0
 11  4  1  0
M  END
> <Identifier>
Drug_208

> <Carcinogen>
0

$$$$

     RDKit          2D

 65 66  0  0  0  0  0  0  0  0999 V2000
   11.6850   -5.5640    0.0000 C   0  0  0  0  0  0  0  0  0  0  0  0
   10.3385   -4.9030    0.0000 C   0  0  0  0  0  0  0  0  0  0  0  0
    9.5685   -6.1903    0.0000 C   0  0  0  0  0  0  0  0  0  0  0  0
    8.4223   -7.1578    0.0000 C   0  0  0  0  0  0  0  0  0  0  0  0
    7.4510   -8.3009    0.0000 C   0  0  0  0  0  0  0  0  0  0  0  0
    6.0527   -8.8438    0.0000 C   0  0  0  0  0  0  0  0  0  0  0  0
    4.7628   -9.6095    0.0000 C   0  0  0  0  0  0  0  0  0  0  0  0
    3.2942   -9.9149    0.0000 C   0  0  0  0  0  0  0  0  0  0  0  0
    1.7954   -9.9744    0.0000 C   0  0  0  0  0  0  0  0  0  0  0  0
    0.3585   -9.5441    0.0000 C   0  0  0  0  0  0  0  0  0  0  0  0
   -1.1297   -9.3561    0.0000 C   0  0  0  0  0  0  0  0  0  0  0  0
   -2.3490   -8.4825    0.0000 C   0  0  0  0  0  0  0  0  0  0  0  0
   -3.6955   -7.8214    0.0000 C   0  0  0  0  0  0  0  0  0  0  0  0
   -4.5651   -6.5992    0.0000 C   0  0  0  0  0  0  0  0  0  0  0  0
   -5.6240   -5.5368    0.0000 C   0  0  0  0  0  0  0  0  0  0  0  0
   -6.0497   -4.0985    0.0000 C   0  0  0  0  0  0  0  0  0  0  0  0
   -6.7062   -2.7498    0.0000 C   0  0  0  0  0  0  0  0  0  0  0  0
   -8.1045   -3.2928    0.0000 O   0  0  0  0  0  0  0  0  0  0  0  0
   -9.2739   -2.3533    0.0000 C   0  0  0  0  0  0  0  0  0  0  0  0
   -9.0449   -0.8709    0.0000 O   0  0  0  0  0  0  0  0  0  0  0  0
  -10.2143    0.0686    0.0000 C   0  0  0  0  0  0  0  0  0  0  0  0
   -9.9854    1.5510    0.0000 C   0  0  0  0  0  0  0  0  0  0  0  0
  -11.6126   -0.4744    0.0000 C   0  0  0  0  0  0  0  0  0  0  0  0
  -12.7819    0.4651    0.0000 O   0  0  0  0  0  0  0  0  0  0  0  0
  -11.8415   -1.9568    0.0000 C   0  0  0  0  0  0  0  0  0  0  0  0
  -13.2398   -2.4997    0.0000 N   0  0  0  0  0  0  0  0  0  0  0  0
  -10.6722   -2.8963    0.0000 C   0  0  0  0  0  0  0  0  0  0  0  0
  -10.9011   -4.3787    0.0000 O   0  0  0  0  0  0  0  0  0  0  0  0
   -6.8893   -1.2610    0.0000 C   0  0  0  0  0  0  0  0  0  0  0  0
   -6.8249    0.2376    0.0000 C   0  0  0  0  0  0  0  0  0  0  0  0
   -8.3130    0.4256    0.0000 O   0  0  0  0  0  0  0  0  0  0  0  0
   -6.5146    1.7052    0.0000 C   0  0  0  0  0  0  0  0  0  0  0  0
   -7.9516    2.1355    0.0000 C   0  0  0  0  0  0  0  0  0  0  0  0
   -9.0427    1.1063    0.0000 O   0  0  0  0  0  0  0  0  0  0  0  0
   -8.2973    3.5951    0.0000 O   0  0  0  0  0  0  0  0  0  0  0  0
   -5.9671    3.1016    0.0000 C   0  0  0  0  0  0  0  0  0  0  0  0
   -7.3136    3.7627    0.0000 O   0  0  0  0  0  0  0  0  0  0  0  0
   -5.1971    4.3890    0.0000 C   0  0  0  0  0  0  0  0  0  0  0  0
   -4.2258    5.5320    0.0000 C   0  0  0  0  0  0  0  0  0  0  0  0
   -5.2847    6.5944    0.0000 O   0  0  0  0  0  0  0  0  0  0  0  0
   -3.0795    6.4995    0.0000 C   0  0  0  0  0  0  0  0  0  0  0  0
   -1.7897    7.2652    0.0000 C   0  0  0  0  0  0  0  0  0  0  0  0
   -2.4463    8.6139    0.0000 O   0  0  0  0  0  0  0  0  0  0  0  0
   -0.3914    7.8082    0.0000 C   0  0  0  0  0  0  0  0  0  0  0  0
   -0.8170    9.2466    0.0000 O   0  0  0  0  0  0  0  0  0  0  0  0
    1.0772    8.1136    0.0000 C   0  0  0  0  0  0  0  0  0  0  0  0
    2.5760    8.1731    0.0000 C   0  0  0  0  0  0  0  0  0  0  0  0
    4.0642    7.9851    0.0000 C   0  0  0  0  0  0  0  0  0  0  0  0
    4.3744    9.4527    0.0000 O   0  0  0  0  0  0  0  0  0  0  0  0
    5.5011    7.5548    0.0000 C   0  0  0  0  0  0  0  0  0  0  0  0
    6.8476    6.8937    0.0000 C   0  0  0  0  0  0  0  0  0  0  0  0
    7.6175    8.1811    0.0000 O   0  0  0  0  0  0  0  0  0  0  0  0
    8.0669    6.0201    0.0000 C   0  0  0  0  0  0  0  0  0  0  0  0
    9.1258    4.9577    0.0000 C   0  0  0  0  0  0  0  0  0  0  0  0
   10.2721    5.9253    0.0000 O   0  0  0  0  0  0  0  0  0  0  0  0
    9.9954    3.7355    0.0000 C   0  0  0  0  0  0  0  0  0  0  0  0
   10.6520    2.3868    0.0000 C   0  0  0  0  0  0  0  0  0  0  0  0
   12.0503    2.9298    0.0000 O   0  0  0  0  0  0  0  0  0  0  0  0
   11.0776    0.9485    0.0000 O   0  0  0  0  0  0  0  0  0  0  0  0
   11.2607   -0.5403    0.0000 C   0  0  0  0  0  0  0  0  0  0  0  0
   12.7595   -0.4808    0.0000 C   0  0  0  0  0  0  0  0  0  0  0  0
   11.1963   -2.0389    0.0000 C   0  0  0  0  0  0  0  0  0  0  0  0
   12.6844   -2.2269    0.0000 C   0  0  0  0  0  0  0  0  0  0  0  0
   10.8860   -3.5065    0.0000 C   0  0  0  0  0  0  0  0  0  0  0  0
   12.3230   -3.9369    0.0000 O   0  0  0  0  0  0  0  0  0  0  0  0
  1  2  1  0
  2  3  1  0
  3  4  2  0
  4  5  1  0
  5  6  2  0
  6  7  1  0
  7  8  1  0
  8  9  1  0
  9 10  2  0
 10 11  1  0
 11 12  2  0
 12 13  1  0
 13 14  2  0
 14 15  1  0
 15 16  2  0
 16 17  1  0
 17 18  1  0
 19 18  1  1
 19 20  1  0
 20 21  1  0
 21 22  1  1
 21 23  1  0
 23 24  1  6
 23 25  1  0
 25 26  1  1
 25 27  1  0
 27 28  1  1
 17 29  1  0
 29 30  1  0
 30 31  1  0
 30 32  1  0
 32 33  1  0
 33 34  2  0
 33 35  1  0
 32 36  1  0
 36 37  1  0
 36 38  1  0
 38 39  1  0
 39 40  2  0
 39 41  1  0
 41 42  1  0
 42 43  1  0
 42 44  1  0
 44 45  1  0
 44 46  1  0
 46 47  1  0
 47 48  1  0
 48 49  1  0
 48 50  1  0
 50 51  1  0
 51 52  1  0
 51 53  1  0
 53 54  1  0
 54 55  1  0
 54 56  1  0
 56 57  1  0
 57 58  2  0
 57 59  1  0
 59 60  1  0
 60 61  1  0
 60 62  1  0
 62 63  1  0
 62 64  1  0
 64 65  1  0
 64  2  1  0
 27 19  1  0
M  END
> <Identifier>
Drug_209

> <Carcinogen>
0

$$$$

     RDKit          2D

 10 10  0  0  0  0  0  0  0  0999 V2000
   -4.6450    0.6199    0.0000 C   0  0  0  0  0  0  0  0  0  0  0  0
   -3.5176   -0.3695    0.0000 N   0  0  0  0  0  0  0  0  0  0  0  0
   -2.0970    0.1121    0.0000 C   0  0  0  0  0  0  0  0  0  0  0  0
   -0.9696   -0.8774    0.0000 C   0  0  0  0  0  0  0  0  0  0  0  0
    0.4510   -0.3958    0.0000 C   0  0  0  0  0  0  0  0  0  0  0  0
    0.7442    1.0753    0.0000 C   0  0  0  0  0  0  0  0  0  0  0  0
    2.1647    1.5569    0.0000 C   0  0  0  0  0  0  0  0  0  0  0  0
    3.2921    0.5674    0.0000 C   0  0  0  0  0  0  0  0  0  0  0  0
    2.9989   -0.9036    0.0000 C   0  0  0  0  0  0  0  0  0  0  0  0
    1.5783   -1.3852    0.0000 N   0  0  0  0  0  0  0  0  0  0  0  0
  1  2  1  0
  2  3  1  0
  3  4  1  0
  4  5  1  0
  5  6  2  0
  6  7  1  0
  7  8  2  0
  8  9  1  0
  9 10  2  0
 10  5  1  0
M  END
> <Identifier>
Drug_210

> <Carcinogen>
0

$$$$

     RDKit          2D

 31 33  0  0  0  0  0  0  0  0999 V2000
    7.2913   -2.3435    0.0000 C   0  0  0  0  0  0  0  0  0  0  0  0
    7.1821   -0.8475    0.0000 N   0  0  0  0  0  0  0  0  0  0  0  0
    5.8320   -0.1940    0.0000 C   0  0  0  0  0  0  0  0  0  0  0  0
    4.5910   -1.0365    0.0000 C   0  0  0  0  0  0  0  0  0  0  0  0
    4.7001   -2.5325    0.0000 O   0  0  0  0  0  0  0  0  0  0  0  0
    3.2408   -0.3830    0.0000 C   0  0  0  0  0  0  0  0  0  0  0  0
    1.9998   -1.2255    0.0000 O   0  0  0  0  0  0  0  0  0  0  0  0
    0.6496   -0.5720    0.0000 C   0  0  0  0  0  0  0  0  0  0  0  0
    0.5405    0.9241    0.0000 C   0  0  0  0  0  0  0  0  0  0  0  0
    1.7815    1.7666    0.0000 N   0  0  0  0  0  0  0  0  0  0  0  0
   -0.8097    1.5776    0.0000 C   0  0  0  0  0  0  0  0  0  0  0  0
   -2.0507    0.7351    0.0000 C   0  0  0  0  0  0  0  0  0  0  0  0
   -3.4009    1.3886    0.0000 N   0  0  0  0  0  0  0  0  0  0  0  0
   -1.9416   -0.7610    0.0000 C   0  0  0  0  0  0  0  0  0  0  0  0
   -3.1826   -1.6035    0.0000 O   0  0  0  0  0  0  0  0  0  0  0  0
   -4.5328   -0.9500    0.0000 C   0  0  0  0  0  0  0  0  0  0  0  0
   -4.6419    0.5460    0.0000 O   0  0  0  0  0  0  0  0  0  0  0  0
   -5.9921    1.1996    0.0000 C   0  0  0  0  0  0  0  0  0  0  0  0
   -6.1012    2.6956    0.0000 C   0  0  0  0  0  0  0  0  0  0  0  0
   -4.8602    3.5381    0.0000 N   0  0  0  0  0  0  0  0  0  0  0  0
   -7.2331    0.3570    0.0000 C   0  0  0  0  0  0  0  0  0  0  0  0
   -7.1240   -1.1390    0.0000 C   0  0  0  0  0  0  0  0  0  0  0  0
   -5.7738   -1.7925    0.0000 C   0  0  0  0  0  0  0  0  0  0  0  0
   -5.6647   -3.2885    0.0000 N   0  0  0  0  0  0  0  0  0  0  0  0
   -0.5914   -1.4145    0.0000 C   0  0  0  0  0  0  0  0  0  0  0  0
   -0.4823   -2.9105    0.0000 O   0  0  0  0  0  0  0  0  0  0  0  0
    3.1317    1.1131    0.0000 O   0  0  0  0  0  0  0  0  0  0  0  0
    4.3727    1.9556    0.0000 C   0  0  0  0  0  0  0  0  0  0  0  0
    5.7229    1.3021    0.0000 C   0  0  0  0  0  0  0  0  0  0  0  0
    6.1320    2.7452    0.0000 C   0  0  0  0  0  0  0  0  0  0  0  0
    7.2151    1.1497    0.0000 O   0  0  0  0  0  0  0  0  0  0  0  0
  1  2  1  0
  3  2  1  1
  3  4  1  0
  4  5  1  1
  4  6  1  0
  6  7  1  6
  8  7  1  1
  8  9  1  0
  9 10  1  6
  9 11  1  0
 11 12  1  0
 12 13  1  6
 12 14  1  0
 14 15  1  1
 15 16  1  0
 16 17  1  0
 17 18  1  0
 18 19  1  0
 19 20  1  0
 18 21  2  0
 21 22  1  0
 22 23  1  0
 23 24  1  0
 14 25  1  0
 25 26  1  1
  6 27  1  0
 27 28  1  0
 28 29  1  0
 29 30  1  6
 29 31  1  0
 29  3  1  0
 25  8  1  0
 23 16  1  0
M  END
> <Identifier>
Drug_211

> <Carcinogen>
0

$$$$

     RDKit          2D

 18 19  0  0  0  0  0  0  0  0999 V2000
   -4.0681    1.8084    0.0000 C   0  0  0  0  0  0  0  0  0  0  0  0
   -2.8672    0.9095    0.0000 C   0  0  0  0  0  0  0  0  0  0  0  0
   -1.4883    1.5001    0.0000 C   0  0  0  0  0  0  0  0  0  0  0  0
   -1.3104    2.9895    0.0000 C   0  0  0  0  0  0  0  0  0  0  0  0
   -0.2875    0.6013    0.0000 C   0  0  0  0  0  0  0  0  0  0  0  0
   -0.4654   -0.8881    0.0000 C   0  0  0  0  0  0  0  0  0  0  0  0
   -1.8443   -1.4787    0.0000 C   0  0  0  0  0  0  0  0  0  0  0  0
   -2.0223   -2.9681    0.0000 C   0  0  0  0  0  0  0  0  0  0  0  0
   -3.0452   -0.5799    0.0000 C   0  0  0  0  0  0  0  0  0  0  0  0
   -4.4240   -1.1705    0.0000 O   0  0  0  0  0  0  0  0  0  0  0  0
    0.7354   -1.7870    0.0000 C   0  0  0  0  0  0  0  0  0  0  0  0
    2.1143   -1.1964    0.0000 C   0  0  0  0  0  0  0  0  0  0  0  0
    2.2923    0.2930    0.0000 C   0  0  0  0  0  0  0  0  0  0  0  0
    2.9689    1.6317    0.0000 C   0  0  0  0  0  0  0  0  0  0  0  0
    3.7281   -0.1409    0.0000 C   0  0  0  0  0  0  0  0  0  0  0  0
    4.8218    0.8857    0.0000 O   0  0  0  0  0  0  0  0  0  0  0  0
    4.0703   -1.6014    0.0000 O   0  0  0  0  0  0  0  0  0  0  0  0
    1.0914    1.1918    0.0000 O   0  0  0  0  0  0  0  0  0  0  0  0
  1  2  1  0
  2  3  2  0
  3  4  1  0
  3  5  1  0
  5  6  2  0
  6  7  1  0
  7  8  1  0
  7  9  2  0
  9 10  1  0
  6 11  1  0
 11 12  1  0
 12 13  1  0
 13 14  1  0
 13 15  1  0
 15 16  2  0
 15 17  1  0
 13 18  1  0
  9  2  1  0
 18  5  1  0
M  END
> <Identifier>
Drug_212

> <Carcinogen>
0

$$$$

     RDKit          2D

 26 30  0  0  0  0  0  0  0  0999 V2000
   -3.3467   -1.5007    0.0000 C   0  0  0  0  0  0  0  0  0  0  0  0
   -2.0809   -0.6958    0.0000 C   0  0  0  0  0  0  0  0  0  0  0  0
   -2.1450    0.8028    0.0000 C   0  0  0  0  0  0  0  0  0  0  0  0
   -3.4749    1.4966    0.0000 C   0  0  0  0  0  0  0  0  0  0  0  0
   -3.5390    2.9952    0.0000 C   0  0  0  0  0  0  0  0  0  0  0  0
   -2.2732    3.8000    0.0000 C   0  0  0  0  0  0  0  0  0  0  0  0
   -0.9433    3.1063    0.0000 N   0  0  0  0  0  0  0  0  0  0  0  0
    0.3225    3.9111    0.0000 C   0  0  0  0  0  0  0  0  0  0  0  0
    1.6524    3.2173    0.0000 C   0  0  0  0  0  0  0  0  0  0  0  0
    1.7165    1.7187    0.0000 C   0  0  0  0  0  0  0  0  0  0  0  0
    0.4507    0.9138    0.0000 C   0  0  0  0  0  0  0  0  0  0  0  0
    0.8250   -0.5387    0.0000 N   0  0  0  0  0  0  0  0  0  0  0  0
    2.3221   -0.6316    0.0000 C   0  0  0  0  0  0  0  0  0  0  0  0
    3.2549   -1.8063    0.0000 C   0  0  0  0  0  0  0  0  0  0  0  0
    4.7386   -1.5859    0.0000 C   0  0  0  0  0  0  0  0  0  0  0  0
    5.2896   -0.1908    0.0000 C   0  0  0  0  0  0  0  0  0  0  0  0
    4.3568    0.9840    0.0000 C   0  0  0  0  0  0  0  0  0  0  0  0
    2.8731    0.7635    0.0000 C   0  0  0  0  0  0  0  0  0  0  0  0
   -0.6292   -1.3073    0.0000 C   0  0  0  0  0  0  0  0  0  0  0  0
    0.4442   -2.3550    0.0000 O   0  0  0  0  0  0  0  0  0  0  0  0
   -1.4746   -2.5463    0.0000 C   0  0  0  0  0  0  0  0  0  0  0  0
   -2.9704   -2.4336    0.0000 O   0  0  0  0  0  0  0  0  0  0  0  0
   -0.8243   -3.8980    0.0000 O   0  0  0  0  0  0  0  0  0  0  0  0
   -1.6698   -5.1370    0.0000 C   0  0  0  0  0  0  0  0  0  0  0  0
   -1.9962   -0.6898    0.0000 C   0  0  0  0  0  0  0  0  0  0  0  0
   -0.8792    1.6076    0.0000 C   0  0  0  0  0  0  0  0  0  0  0  0
  1  2  1  0
  3  2  1  1
  3  4  1  0
  4  5  1  0
  5  6  1  0
  6  7  1  0
  7  8  1  0
  8  9  1  0
  9 10  1  0
 10 11  2  0
 11 12  1  0
 12 13  1  0
 13 14  2  0
 14 15  1  0
 15 16  2  0
 16 17  1  0
 17 18  2  0
 12 19  1  0
 19 20  1  1
 19 21  1  0
 21 22  2  0
 21 23  1  0
 23 24  1  0
 19 25  1  0
 11 26  1  0
 25  3  1  0
 26  3  1  0
 26  7  1  6
 18 10  1  0
 18 13  1  0
M  END
> <Identifier>
Drug_213

> <Carcinogen>
0

$$$$

     RDKit          2D

 18 20  0  0  0  0  0  0  0  0999 V2000
   -3.7450    1.7335    0.0000 C   0  0  0  0  0  0  0  0  0  0  0  0
   -2.8123    0.5588    0.0000 C   0  0  0  0  0  0  0  0  0  0  0  0
   -3.2144   -0.8863    0.0000 C   0  0  0  0  0  0  0  0  0  0  0  0
   -4.6199   -1.4103    0.0000 O   0  0  0  0  0  0  0  0  0  0  0  0
   -1.9643   -1.7153    0.0000 O   0  0  0  0  0  0  0  0  0  0  0  0
   -0.7896   -0.7826    0.0000 C   0  0  0  0  0  0  0  0  0  0  0  0
   -1.3136    0.6229    0.0000 C   0  0  0  0  0  0  0  0  0  0  0  0
   -0.9115    2.0680    0.0000 C   0  0  0  0  0  0  0  0  0  0  0  0
    0.2633    3.0007    0.0000 C   0  0  0  0  0  0  0  0  0  0  0  0
    1.5133    2.1717    0.0000 C   0  0  0  0  0  0  0  0  0  0  0  0
    1.1112    0.7266    0.0000 C   0  0  0  0  0  0  0  0  0  0  0  0
    3.0120    2.2358    0.0000 C   0  0  0  0  0  0  0  0  0  0  0  0
    3.5360    0.8303    0.0000 C   0  0  0  0  0  0  0  0  0  0  0  0
    3.1339   -0.6148    0.0000 C   0  0  0  0  0  0  0  0  0  0  0  0
    1.9592   -1.5475    0.0000 C   0  0  0  0  0  0  0  0  0  0  0  0
    3.1157   -2.5026    0.0000 C   0  0  0  0  0  0  0  0  0  0  0  0
    1.2653   -2.8774    0.0000 O   0  0  0  0  0  0  0  0  0  0  0  0
    0.4605   -1.6116    0.0000 C   0  0  0  0  0  0  0  0  0  0  0  0
  1  2  2  0
  2  3  1  0
  3  4  2  0
  3  5  1  0
  6  5  1  1
  6  7  1  0
  7  8  1  6
  8  9  1  0
  9 10  1  0
 10 11  1  0
 10 12  2  0
 12 13  1  0
 13 14  1  0
 14 15  1  0
 15 16  1  6
 15 17  1  0
 18 17  1  6
  7  2  1  0
 18 15  1  0
 18  6  1  0
M  END
> <Identifier>
Drug_214

> <Carcinogen>
0

$$$$

     RDKit          2D

 25 27  0  0  0  0  0  0  0  0999 V2000
    2.1480   -3.2230    0.0000 C   0  0  0  0  0  0  0  0  0  0  0  0
    2.7583   -1.8528    0.0000 C   0  0  0  0  0  0  0  0  0  0  0  0
    4.2502   -1.6963    0.0000 C   0  0  0  0  0  0  0  0  0  0  0  0
    4.8605   -0.3261    0.0000 C   0  0  0  0  0  0  0  0  0  0  0  0
    6.3524   -0.1696    0.0000 C   0  0  0  0  0  0  0  0  0  0  0  0
    6.9627    1.2006    0.0000 C   0  0  0  0  0  0  0  0  0  0  0  0
    6.0813    2.4143    0.0000 C   0  0  0  0  0  0  0  0  0  0  0  0
    4.5895    2.2578    0.0000 C   0  0  0  0  0  0  0  0  0  0  0  0
    3.9791    0.8876    0.0000 C   0  0  0  0  0  0  0  0  0  0  0  0
    1.8769   -0.6391    0.0000 N   0  0  0  0  0  0  0  0  0  0  0  0
    0.3851   -0.7956    0.0000 C   0  0  0  0  0  0  0  0  0  0  0  0
   -0.4963    0.4182    0.0000 C   0  0  0  0  0  0  0  0  0  0  0  0
   -1.9881    0.2617    0.0000 C   0  0  0  0  0  0  0  0  0  0  0  0
   -2.8696    1.4754    0.0000 C   0  0  0  0  0  0  0  0  0  0  0  0
   -2.2592    2.8456    0.0000 C   0  0  0  0  0  0  0  0  0  0  0  0
   -3.1406    4.0593    0.0000 C   0  0  0  0  0  0  0  0  0  0  0  0
   -4.6324    3.9028    0.0000 C   0  0  0  0  0  0  0  0  0  0  0  0
   -5.2428    2.5326    0.0000 C   0  0  0  0  0  0  0  0  0  0  0  0
   -4.3614    1.3189    0.0000 C   0  0  0  0  0  0  0  0  0  0  0  0
   -2.5985   -1.1085    0.0000 C   0  0  0  0  0  0  0  0  0  0  0  0
   -4.0903   -1.2650    0.0000 C   0  0  0  0  0  0  0  0  0  0  0  0
   -4.7007   -2.6352    0.0000 C   0  0  0  0  0  0  0  0  0  0  0  0
   -3.8193   -3.8489    0.0000 C   0  0  0  0  0  0  0  0  0  0  0  0
   -2.3275   -3.6924    0.0000 C   0  0  0  0  0  0  0  0  0  0  0  0
   -1.7171   -2.3222    0.0000 C   0  0  0  0  0  0  0  0  0  0  0  0
  1  2  1  0
  2  3  1  0
  3  4  1  0
  4  5  2  0
  5  6  1  0
  6  7  2  0
  7  8  1  0
  8  9  2  0
  2 10  1  0
 10 11  1  0
 11 12  1  0
 12 13  1  0
 13 14  1  0
 14 15  2  0
 15 16  1  0
 16 17  2  0
 17 18  1  0
 18 19  2  0
 13 20  1  0
 20 21  2  0
 21 22  1  0
 22 23  2  0
 23 24  1  0
 24 25  2  0
  9  4  1  0
 19 14  1  0
 25 20  1  0
M  END
> <Identifier>
Drug_215

> <Carcinogen>
0

$$$$

     RDKit          2D

 20 21  0  0  0  0  0  0  0  0999 V2000
   -6.4520    0.4621    0.0000 C   0  0  0  0  0  0  0  0  0  0  0  0
   -5.1546   -0.2907    0.0000 N   0  0  0  0  0  0  0  0  0  0  0  0
   -5.1579   -1.7907    0.0000 C   0  0  0  0  0  0  0  0  0  0  0  0
   -3.8540    0.4565    0.0000 C   0  0  0  0  0  0  0  0  0  0  0  0
   -2.5566   -0.2964    0.0000 C   0  0  0  0  0  0  0  0  0  0  0  0
   -1.2559    0.4508    0.0000 O   0  0  0  0  0  0  0  0  0  0  0  0
    0.0415   -0.3021    0.0000 C   0  0  0  0  0  0  0  0  0  0  0  0
   -0.7113   -1.5995    0.0000 C   0  0  0  0  0  0  0  0  0  0  0  0
    0.7943    0.9953    0.0000 C   0  0  0  0  0  0  0  0  0  0  0  0
    2.2943    0.9921    0.0000 C   0  0  0  0  0  0  0  0  0  0  0  0
    3.0472    2.2895    0.0000 C   0  0  0  0  0  0  0  0  0  0  0  0
    2.3000    3.5901    0.0000 C   0  0  0  0  0  0  0  0  0  0  0  0
    0.8000    3.5934    0.0000 C   0  0  0  0  0  0  0  0  0  0  0  0
    0.0472    2.2960    0.0000 C   0  0  0  0  0  0  0  0  0  0  0  0
    1.3389   -1.0549    0.0000 C   0  0  0  0  0  0  0  0  0  0  0  0
    1.3356   -2.5549    0.0000 C   0  0  0  0  0  0  0  0  0  0  0  0
    2.6330   -3.3077    0.0000 C   0  0  0  0  0  0  0  0  0  0  0  0
    3.9337   -2.5606    0.0000 C   0  0  0  0  0  0  0  0  0  0  0  0
    3.9370   -1.0606    0.0000 C   0  0  0  0  0  0  0  0  0  0  0  0
    2.6396   -0.3077    0.0000 N   0  0  0  0  0  0  0  0  0  0  0  0
  1  2  1  0
  2  3  1  0
  2  4  1  0
  4  5  1  0
  5  6  1  0
  6  7  1  0
  7  8  1  0
  7  9  1  0
  9 10  2  0
 10 11  1  0
 11 12  2  0
 12 13  1  0
 13 14  2  0
  7 15  1  0
 15 16  2  0
 16 17  1  0
 17 18  2  0
 18 19  1  0
 19 20  2  0
 14  9  1  0
 20 15  1  0
M  END
> <Identifier>
Drug_216

> <Carcinogen>
0

$$$$

     RDKit          2D

 23 25  0  0  0  0  0  0  0  0999 V2000
   -3.9340    3.5747    0.0000 C   0  0  0  0  0  0  0  0  0  0  0  0
   -3.2632    2.2330    0.0000 C   0  0  0  0  0  0  0  0  0  0  0  0
   -4.0898    0.9813    0.0000 O   0  0  0  0  0  0  0  0  0  0  0  0
   -1.7659    2.1431    0.0000 C   0  0  0  0  0  0  0  0  0  0  0  0
   -0.9394    3.3948    0.0000 C   0  0  0  0  0  0  0  0  0  0  0  0
    0.5579    3.3048    0.0000 C   0  0  0  0  0  0  0  0  0  0  0  0
    1.2287    1.9631    0.0000 C   0  0  0  0  0  0  0  0  0  0  0  0
    0.4021    0.7114    0.0000 C   0  0  0  0  0  0  0  0  0  0  0  0
   -1.0952    0.8014    0.0000 C   0  0  0  0  0  0  0  0  0  0  0  0
    1.0728   -0.6303    0.0000 N   0  0  0  0  0  0  0  0  0  0  0  0
    0.2462   -1.8820    0.0000 C   0  0  0  0  0  0  0  0  0  0  0  0
   -1.2511   -1.7920    0.0000 C   0  0  0  0  0  0  0  0  0  0  0  0
   -2.0776   -3.0437    0.0000 C   0  0  0  0  0  0  0  0  0  0  0  0
   -3.5749   -2.9537    0.0000 N   0  0  0  0  0  0  0  0  0  0  0  0
   -4.4015   -4.2055    0.0000 C   0  0  0  0  0  0  0  0  0  0  0  0
   -4.2457   -1.6121    0.0000 C   0  0  0  0  0  0  0  0  0  0  0  0
    2.5701   -0.7203    0.0000 C   0  0  0  0  0  0  0  0  0  0  0  0
    3.2408   -2.0620    0.0000 C   0  0  0  0  0  0  0  0  0  0  0  0
    4.7381   -2.1519    0.0000 C   0  0  0  0  0  0  0  0  0  0  0  0
    5.5647   -0.9002    0.0000 C   0  0  0  0  0  0  0  0  0  0  0  0
    4.8940    0.4415    0.0000 C   0  0  0  0  0  0  0  0  0  0  0  0
    3.3967    0.5314    0.0000 C   0  0  0  0  0  0  0  0  0  0  0  0
    2.7260    1.8731    0.0000 S   0  0  0  0  0  0  0  0  0  0  0  0
  1  2  1  0
  2  3  2  0
  2  4  1  0
  4  5  2  0
  5  6  1  0
  6  7  2  0
  7  8  1  0
  8  9  2  0
  8 10  1  0
 10 11  1  0
 11 12  1  0
 12 13  1  0
 13 14  1  0
 14 15  1  0
 14 16  1  0
 10 17  1  0
 17 18  2  0
 18 19  1  0
 19 20  2  0
 20 21  1  0
 21 22  2  0
 22 23  1  0
  9  4  1  0
 22 17  1  0
 23  7  1  0
M  END
> <Identifier>
Drug_217

> <Carcinogen>
0

$$$$

     RDKit          2D

 20 23  0  0  0  0  0  0  0  0999 V2000
   -4.3032    2.4750    0.0000 O   0  0  0  0  0  0  0  0  0  0  0  0
   -3.6925    1.1049    0.0000 C   0  0  0  0  0  0  0  0  0  0  0  0
   -4.5737   -0.1090    0.0000 C   0  0  0  0  0  0  0  0  0  0  0  0
   -3.9630   -1.4790    0.0000 C   0  0  0  0  0  0  0  0  0  0  0  0
   -2.4712   -1.6352    0.0000 C   0  0  0  0  0  0  0  0  0  0  0  0
   -1.8605   -3.0053    0.0000 O   0  0  0  0  0  0  0  0  0  0  0  0
   -1.5900   -0.4213    0.0000 C   0  0  0  0  0  0  0  0  0  0  0  0
   -2.2007    0.9488    0.0000 C   0  0  0  0  0  0  0  0  0  0  0  0
   -1.3195    2.1626    0.0000 C   0  0  0  0  0  0  0  0  0  0  0  0
    0.1723    2.0065    0.0000 C   0  0  0  0  0  0  0  0  0  0  0  0
    0.7830    0.6364    0.0000 C   0  0  0  0  0  0  0  0  0  0  0  0
   -0.0982   -0.5775    0.0000 C   0  0  0  0  0  0  0  0  0  0  0  0
    0.5125   -1.9476    0.0000 C   0  0  0  0  0  0  0  0  0  0  0  0
    2.0044   -2.1037    0.0000 C   0  0  0  0  0  0  0  0  0  0  0  0
    2.8855   -0.8898    0.0000 C   0  0  0  0  0  0  0  0  0  0  0  0
    4.3774   -1.0460    0.0000 C   0  0  0  0  0  0  0  0  0  0  0  0
    5.2586    0.1679    0.0000 C   0  0  0  0  0  0  0  0  0  0  0  0
    4.6479    1.5380    0.0000 C   0  0  0  0  0  0  0  0  0  0  0  0
    3.1560    1.6941    0.0000 C   0  0  0  0  0  0  0  0  0  0  0  0
    2.2749    0.4802    0.0000 C   0  0  0  0  0  0  0  0  0  0  0  0
  1  2  2  0
  2  3  1  0
  3  4  2  0
  4  5  1  0
  5  6  2  0
  5  7  1  0
  7  8  2  0
  8  9  1  0
  9 10  2  0
 10 11  1  0
 11 12  2  0
 12 13  1  0
 13 14  2  0
 14 15  1  0
 15 16  2  0
 16 17  1  0
 17 18  2  0
 18 19  1  0
 19 20  2  0
  8  2  1  0
 20 11  1  0
 12  7  1  0
 20 15  1  0
M  END
> <Identifier>
Drug_218

> <Carcinogen>
0

$$$$

     RDKit          2D

 17 20  0  0  0  0  0  0  0  0999 V2000
   -0.3642    2.2286    0.0000 C   0  0  0  0  0  0  0  0  0  0  0  0
    0.0808    0.7961    0.0000 C   0  0  0  0  0  0  0  0  0  0  0  0
   -0.9373   -0.3055    0.0000 N   0  0  0  0  0  0  0  0  0  0  0  0
   -0.4923   -1.7380    0.0000 C   0  0  0  0  0  0  0  0  0  0  0  0
    0.9707   -2.0688    0.0000 C   0  0  0  0  0  0  0  0  0  0  0  0
    1.9888   -0.9672    0.0000 C   0  0  0  0  0  0  0  0  0  0  0  0
    3.4519   -1.2981    0.0000 C   0  0  0  0  0  0  0  0  0  0  0  0
    4.4699   -0.1965    0.0000 C   0  0  0  0  0  0  0  0  0  0  0  0
    4.0249    1.2360    0.0000 C   0  0  0  0  0  0  0  0  0  0  0  0
    2.5619    1.5669    0.0000 C   0  0  0  0  0  0  0  0  0  0  0  0
    1.5438    0.4653    0.0000 C   0  0  0  0  0  0  0  0  0  0  0  0
   -1.7815   -0.9712    0.0000 C   0  0  0  0  0  0  0  0  0  0  0  0
   -3.2140   -1.4162    0.0000 C   0  0  0  0  0  0  0  0  0  0  0  0
   -4.3156   -0.3981    0.0000 C   0  0  0  0  0  0  0  0  0  0  0  0
   -3.9847    1.0649    0.0000 C   0  0  0  0  0  0  0  0  0  0  0  0
   -2.5523    1.5099    0.0000 C   0  0  0  0  0  0  0  0  0  0  0  0
   -1.4507    0.4919    0.0000 C   0  0  0  0  0  0  0  0  0  0  0  0
  2  1  1  1
  2  3  1  0
  3  4  1  0
  4  5  1  6
  5  6  1  0
  6  7  2  0
  7  8  1  0
  8  9  2  0
  9 10  1  0
 10 11  2  0
  4 12  1  0
 12 13  2  0
 13 14  1  0
 14 15  2  0
 15 16  1  0
 16 17  2  0
 11  2  1  0
 17 12  1  0
 17  2  1  0
 11  6  1  0
M  END
> <Identifier>
Drug_219

> <Carcinogen>
0

$$$$

     RDKit          2D

 16 18  0  0  0  0  0  0  0  0999 V2000
   -4.8174    0.0672    0.0000 C   0  0  0  0  0  0  0  0  0  0  0  0
   -4.3015    1.4757    0.0000 C   0  0  0  0  0  0  0  0  0  0  0  0
   -2.8238    1.7332    0.0000 C   0  0  0  0  0  0  0  0  0  0  0  0
   -1.8619    0.5821    0.0000 C   0  0  0  0  0  0  0  0  0  0  0  0
   -0.3842    0.8396    0.0000 N   0  0  0  0  0  0  0  0  0  0  0  0
    0.5777   -0.3114    0.0000 C   0  0  0  0  0  0  0  0  0  0  0  0
    2.0554   -0.0539    0.0000 N   0  0  0  0  0  0  0  0  0  0  0  0
    3.0172   -1.2050    0.0000 C   0  0  0  0  0  0  0  0  0  0  0  0
    4.4950   -0.9475    0.0000 C   0  0  0  0  0  0  0  0  0  0  0  0
    5.0109    0.4610    0.0000 N   0  0  0  0  0  0  0  0  0  0  0  0
    4.0490    1.6120    0.0000 C   0  0  0  0  0  0  0  0  0  0  0  0
    2.5713    1.3545    0.0000 C   0  0  0  0  0  0  0  0  0  0  0  0
    0.0618   -1.7199    0.0000 C   0  0  0  0  0  0  0  0  0  0  0  0
   -1.4160   -1.9774    0.0000 C   0  0  0  0  0  0  0  0  0  0  0  0
   -2.3778   -0.8264    0.0000 C   0  0  0  0  0  0  0  0  0  0  0  0
   -3.8556   -1.0838    0.0000 C   0  0  0  0  0  0  0  0  0  0  0  0
  1  2  2  0
  2  3  1  0
  3  4  2  0
  4  5  1  0
  5  6  2  0
  6  7  1  0
  7  8  1  0
  8  9  1  0
  9 10  1  0
 10 11  1  0
 11 12  1  0
  6 13  1  0
 13 14  2  0
 14 15  1  0
 15 16  2  0
 16  1  1  0
 15  4  1  0
 12  7  1  0
M  END
> <Identifier>
Drug_220

> <Carcinogen>
0

$$$$

     RDKit          2D

 14 14  0  0  0  0  0  0  0  0999 V2000
   -5.5327    0.6202    0.0000 C   0  0  0  0  0  0  0  0  0  0  0  0
   -4.3253   -0.2698    0.0000 N   0  0  0  0  0  0  0  0  0  0  0  0
   -2.9507    0.3308    0.0000 C   0  0  0  0  0  0  0  0  0  0  0  0
   -1.7433   -0.5593    0.0000 C   0  0  0  0  0  0  0  0  0  0  0  0
   -1.9104   -2.0499    0.0000 O   0  0  0  0  0  0  0  0  0  0  0  0
   -0.3688    0.0413    0.0000 C   0  0  0  0  0  0  0  0  0  0  0  0
   -0.2017    1.5320    0.0000 C   0  0  0  0  0  0  0  0  0  0  0  0
    1.1728    2.1326    0.0000 C   0  0  0  0  0  0  0  0  0  0  0  0
    2.3802    1.2426    0.0000 C   0  0  0  0  0  0  0  0  0  0  0  0
    3.7547    1.8432    0.0000 O   0  0  0  0  0  0  0  0  0  0  0  0
    2.2131   -0.2481    0.0000 C   0  0  0  0  0  0  0  0  0  0  0  0
    3.4205   -1.1381    0.0000 O   0  0  0  0  0  0  0  0  0  0  0  0
    3.2534   -2.6288    0.0000 C   0  0  0  0  0  0  0  0  0  0  0  0
    0.8386   -0.8487    0.0000 C   0  0  0  0  0  0  0  0  0  0  0  0
  1  2  1  0
  2  3  1  0
  3  4  1  0
  4  5  1  0
  4  6  1  0
  6  7  2  0
  7  8  1  0
  8  9  2  0
  9 10  1  0
  9 11  1  0
 11 12  1  0
 12 13  1  0
 11 14  2  0
 14  6  1  0
M  END
> <Identifier>
Drug_221

> <Carcinogen>
0

$$$$

     RDKit          2D

 22 24  0  0  0  0  0  0  0  0999 V2000
   -6.7653    1.9303    0.0000 C   0  0  0  0  0  0  0  0  0  0  0  0
   -6.1849    0.5472    0.0000 O   0  0  0  0  0  0  0  0  0  0  0  0
   -4.6968    0.3583    0.0000 C   0  0  0  0  0  0  0  0  0  0  0  0
   -3.7892    1.5525    0.0000 C   0  0  0  0  0  0  0  0  0  0  0  0
   -2.3011    1.3635    0.0000 C   0  0  0  0  0  0  0  0  0  0  0  0
   -1.7207   -0.0196    0.0000 C   0  0  0  0  0  0  0  0  0  0  0  0
   -0.2327   -0.2085    0.0000 C   0  0  0  0  0  0  0  0  0  0  0  0
    0.3477   -1.5917    0.0000 C   0  0  0  0  0  0  0  0  0  0  0  0
    1.8358   -1.7806    0.0000 C   0  0  0  0  0  0  0  0  0  0  0  0
    2.4162   -3.1638    0.0000 O   0  0  0  0  0  0  0  0  0  0  0  0
    2.7434   -0.5864    0.0000 C   0  0  0  0  0  0  0  0  0  0  0  0
    4.2315   -0.7753    0.0000 C   0  0  0  0  0  0  0  0  0  0  0  0
    4.8119   -2.1585    0.0000 O   0  0  0  0  0  0  0  0  0  0  0  0
    5.1391    0.4189    0.0000 C   0  0  0  0  0  0  0  0  0  0  0  0
    4.5587    1.8020    0.0000 C   0  0  0  0  0  0  0  0  0  0  0  0
    5.4664    2.9963    0.0000 O   0  0  0  0  0  0  0  0  0  0  0  0
    3.0707    1.9910    0.0000 C   0  0  0  0  0  0  0  0  0  0  0  0
    2.1630    0.7967    0.0000 C   0  0  0  0  0  0  0  0  0  0  0  0
    0.6750    0.9857    0.0000 O   0  0  0  0  0  0  0  0  0  0  0  0
   -2.6284   -1.2138    0.0000 C   0  0  0  0  0  0  0  0  0  0  0  0
   -4.1164   -1.0249    0.0000 C   0  0  0  0  0  0  0  0  0  0  0  0
   -5.0241   -2.2191    0.0000 O   0  0  0  0  0  0  0  0  0  0  0  0
  1  2  1  0
  2  3  1  0
  3  4  2  0
  4  5  1  0
  5  6  2  0
  7  6  1  1
  7  8  1  0
  8  9  1  0
  9 10  2  0
  9 11  1  0
 11 12  2  0
 12 13  1  0
 12 14  1  0
 14 15  2  0
 15 16  1  0
 15 17  1  0
 17 18  2  0
 18 19  1  0
  6 20  1  0
 20 21  2  0
 21 22  1  0
 21  3  1  0
 19  7  1  0
 18 11  1  0
M  END
> <Identifier>
Drug_222

> <Carcinogen>
0

$$$$

     RDKit          2D

 39 40  0  0  0  0  0  0  0  0999 V2000
  -10.2668   -1.3211    0.0000 C   0  0  0  0  0  0  0  0  0  0  0  0
   -8.9960   -2.1180    0.0000 C   0  0  0  0  0  0  0  0  0  0  0  0
   -7.6705   -1.4158    0.0000 C   0  0  0  0  0  0  0  0  0  0  0  0
   -6.3997   -2.2127    0.0000 C   0  0  0  0  0  0  0  0  0  0  0  0
   -5.0741   -1.5105    0.0000 C   0  0  0  0  0  0  0  0  0  0  0  0
   -3.8033   -2.3073    0.0000 C   0  0  0  0  0  0  0  0  0  0  0  0
   -2.4778   -1.6052    0.0000 C   0  0  0  0  0  0  0  0  0  0  0  0
   -1.3646   -2.6106    0.0000 C   0  0  0  0  0  0  0  0  0  0  0  0
   -1.9287   -4.0005    0.0000 O   0  0  0  0  0  0  0  0  0  0  0  0
    0.1344   -2.6653    0.0000 O   0  0  0  0  0  0  0  0  0  0  0  0
    1.3178   -1.7436    0.0000 C   0  0  0  0  0  0  0  0  0  0  0  0
    2.5887   -2.5404    0.0000 C   0  0  0  0  0  0  0  0  0  0  0  0
    1.6319   -0.2768    0.0000 C   0  0  0  0  0  0  0  0  0  0  0  0
    3.1177   -0.0704    0.0000 N   0  0  0  0  0  0  0  0  0  0  0  0
    4.0393   -1.2538    0.0000 C   0  0  0  0  0  0  0  0  0  0  0  0
    3.4753   -2.6437    0.0000 O   0  0  0  0  0  0  0  0  0  0  0  0
    5.5251   -1.0473    0.0000 C   0  0  0  0  0  0  0  0  0  0  0  0
    6.4467   -2.2308    0.0000 C   0  0  0  0  0  0  0  0  0  0  0  0
    7.9324   -2.0243    0.0000 C   0  0  0  0  0  0  0  0  0  0  0  0
    8.4965   -0.6344    0.0000 C   0  0  0  0  0  0  0  0  0  0  0  0
    7.5748    0.5490    0.0000 C   0  0  0  0  0  0  0  0  0  0  0  0
    8.1389    1.9389    0.0000 N   0  0  0  0  0  0  0  0  0  0  0  0
    9.6246    2.1454    0.0000 C   0  0  0  0  0  0  0  0  0  0  0  0
   10.1887    3.5353    0.0000 O   0  0  0  0  0  0  0  0  0  0  0  0
    6.0891    0.3426    0.0000 C   0  0  0  0  0  0  0  0  0  0  0  0
    5.1674    1.5260    0.0000 O   0  0  0  0  0  0  0  0  0  0  0  0
    0.9298    1.0487    0.0000 C   0  0  0  0  0  0  0  0  0  0  0  0
    1.9352    2.1618    0.0000 O   0  0  0  0  0  0  0  0  0  0  0  0
   -0.4601    1.6127    0.0000 O   0  0  0  0  0  0  0  0  0  0  0  0
   -1.8874    1.1514    0.0000 C   0  0  0  0  0  0  0  0  0  0  0  0
   -2.8091    2.3348    0.0000 C   0  0  0  0  0  0  0  0  0  0  0  0
   -2.6843   -0.1195    0.0000 C   0  0  0  0  0  0  0  0  0  0  0  0
   -4.1510    0.1947    0.0000 O   0  0  0  0  0  0  0  0  0  0  0  0
   -4.6123    1.6220    0.0000 C   0  0  0  0  0  0  0  0  0  0  0  0
   -3.6069    2.7351    0.0000 O   0  0  0  0  0  0  0  0  0  0  0  0
   -6.0791    1.9361    0.0000 C   0  0  0  0  0  0  0  0  0  0  0  0
   -6.5404    3.3634    0.0000 C   0  0  0  0  0  0  0  0  0  0  0  0
   -8.0071    3.6775    0.0000 C   0  0  0  0  0  0  0  0  0  0  0  0
   -5.5350    4.4766    0.0000 C   0  0  0  0  0  0  0  0  0  0  0  0
  1  2  1  0
  2  3  1  0
  3  4  1  0
  4  5  1  0
  5  6  1  0
  7  6  1  6
  7  8  1  0
  8  9  2  0
  8 10  1  0
 10 11  1  0
 11 12  1  1
 11 13  1  0
 13 14  1  0
 14 15  1  0
 15 16  2  0
 15 17  1  0
 17 18  2  0
 18 19  1  0
 19 20  2  0
 20 21  1  0
 21 22  1  0
 22 23  1  0
 23 24  2  0
 21 25  2  0
 25 26  1  0
 13 27  1  0
 27 28  2  0
 27 29  1  0
 29 30  1  0
 30 31  1  6
 30 32  1  0
 32 33  1  1
 33 34  1  0
 34 35  2  0
 34 36  1  0
 36 37  1  0
 37 38  1  0
 37 39  1  0
 32  7  1  0
 25 17  1  0
M  END
> <Identifier>
Drug_223

> <Carcinogen>
0

$$$$

     RDKit          2D

 26 28  0  0  0  0  0  0  0  0999 V2000
   -7.6668   -0.6455    0.0000 C   0  0  0  0  0  0  0  0  0  0  0  0
   -6.4241   -1.4856    0.0000 C   0  0  0  0  0  0  0  0  0  0  0  0
   -6.5304   -2.9818    0.0000 O   0  0  0  0  0  0  0  0  0  0  0  0
   -5.0752   -0.8295    0.0000 O   0  0  0  0  0  0  0  0  0  0  0  0
   -3.8326   -1.6697    0.0000 C   0  0  0  0  0  0  0  0  0  0  0  0
   -2.4837   -1.0136    0.0000 C   0  0  0  0  0  0  0  0  0  0  0  0
   -2.3774    0.4826    0.0000 C   0  0  0  0  0  0  0  0  0  0  0  0
   -3.6200    1.3228    0.0000 C   0  0  0  0  0  0  0  0  0  0  0  0
   -4.9689    0.6667    0.0000 O   0  0  0  0  0  0  0  0  0  0  0  0
   -3.5138    2.8190    0.0000 O   0  0  0  0  0  0  0  0  0  0  0  0
   -1.0285    1.1387    0.0000 N   0  0  0  0  0  0  0  0  0  0  0  0
   -0.1883    2.3814    0.0000 C   0  0  0  0  0  0  0  0  0  0  0  0
   -0.4730    3.8541    0.0000 O   0  0  0  0  0  0  0  0  0  0  0  0
    1.0543    1.5412    0.0000 C   0  0  0  0  0  0  0  0  0  0  0  0
    2.5270    1.8258    0.0000 N   0  0  0  0  0  0  0  0  0  0  0  0
    3.5099    0.6927    0.0000 C   0  0  0  0  0  0  0  0  0  0  0  0
    3.0200   -0.7251    0.0000 O   0  0  0  0  0  0  0  0  0  0  0  0
    4.9826    0.9773    0.0000 C   0  0  0  0  0  0  0  0  0  0  0  0
    5.9655   -0.1558    0.0000 C   0  0  0  0  0  0  0  0  0  0  0  0
    7.4599   -0.0267    0.0000 C   0  0  0  0  0  0  0  0  0  0  0  0
    8.0445   -1.4081    0.0000 C   0  0  0  0  0  0  0  0  0  0  0  0
    6.9114   -2.3910    0.0000 C   0  0  0  0  0  0  0  0  0  0  0  0
    5.6265   -1.6170    0.0000 S   0  0  0  0  0  0  0  0  0  0  0  0
    0.2141    0.2986    0.0000 C   0  0  0  0  0  0  0  0  0  0  0  0
    0.1079   -1.1977    0.0000 S   0  0  0  0  0  0  0  0  0  0  0  0
   -1.2410   -1.8537    0.0000 C   0  0  0  0  0  0  0  0  0  0  0  0
  1  2  1  0
  2  3  2  0
  2  4  1  0
  4  5  1  0
  5  6  1  0
  6  7  2  0
  7  8  1  0
  8  9  2  0
  8 10  1  0
  7 11  1  0
 11 12  1  0
 12 13  2  0
 12 14  1  0
 14 15  1  1
 15 16  1  0
 16 17  2  0
 16 18  1  0
 18 19  1  0
 19 20  2  0
 20 21  1  0
 21 22  2  0
 22 23  1  0
 14 24  1  0
 24 25  1  1
 25 26  1  0
 26  6  1  0
 24 11  1  0
 23 19  1  0
M  END
> <Identifier>
Drug_224

> <Carcinogen>
0

$$$$

     RDKit          2D

 17 18  0  0  0  0  0  0  0  0999 V2000
    5.5837   -0.5153    0.0000 N   0  0  0  0  0  0  0  0  0  0  0  0
    4.0855   -0.4436    0.0000 C   0  0  0  0  0  0  0  0  0  0  0  0
    3.2743   -1.7054    0.0000 N   0  0  0  0  0  0  0  0  0  0  0  0
    1.7760   -1.6337    0.0000 C   0  0  0  0  0  0  0  0  0  0  0  0
    1.0889   -0.3004    0.0000 N   0  0  0  0  0  0  0  0  0  0  0  0
   -0.4094   -0.2287    0.0000 C   0  0  0  0  0  0  0  0  0  0  0  0
   -1.3480   -1.3988    0.0000 O   0  0  0  0  0  0  0  0  0  0  0  0
   -2.7508   -0.8677    0.0000 C   0  0  0  0  0  0  0  0  0  0  0  0
   -4.0051   -1.6904    0.0000 C   0  0  0  0  0  0  0  0  0  0  0  0
   -5.3447   -1.0155    0.0000 O   0  0  0  0  0  0  0  0  0  0  0  0
   -2.6792    0.6306    0.0000 C   0  0  0  0  0  0  0  0  0  0  0  0
   -3.8493    1.5692    0.0000 O   0  0  0  0  0  0  0  0  0  0  0  0
   -1.2321    1.0255    0.0000 C   0  0  0  0  0  0  0  0  0  0  0  0
   -0.7010    2.4283    0.0000 O   0  0  0  0  0  0  0  0  0  0  0  0
    1.9001    0.9614    0.0000 C   0  0  0  0  0  0  0  0  0  0  0  0
    1.2129    2.2947    0.0000 O   0  0  0  0  0  0  0  0  0  0  0  0
    3.3983    0.8897    0.0000 N   0  0  0  0  0  0  0  0  0  0  0  0
  1  2  1  0
  2  3  1  0
  3  4  2  0
  4  5  1  0
  5  6  1  0
  6  7  1  0
  7  8  1  0
  8  9  1  6
  9 10  1  0
  8 11  1  0
 11 12  1  1
 11 13  1  0
 13 14  1  1
  5 15  1  0
 15 16  2  0
 15 17  1  0
 17  2  2  0
 13  6  1  0
M  END
> <Identifier>
Drug_225

> <Carcinogen>
0

$$$$

     RDKit          2D

 19 21  0  0  0  0  0  0  0  0999 V2000
   -5.5059   -0.5977    0.0000 N   0  0  0  0  0  0  0  0  0  0  0  0
   -4.2279    0.1875    0.0000 C   0  0  0  0  0  0  0  0  0  0  0  0
   -4.2689    1.6870    0.0000 N   0  0  0  0  0  0  0  0  0  0  0  0
   -2.9909    2.4722    0.0000 C   0  0  0  0  0  0  0  0  0  0  0  0
   -1.6718    1.7581    0.0000 N   0  0  0  0  0  0  0  0  0  0  0  0
   -1.6308    0.2586    0.0000 C   0  0  0  0  0  0  0  0  0  0  0  0
   -2.9088   -0.5266    0.0000 C   0  0  0  0  0  0  0  0  0  0  0  0
   -2.5569   -1.9848    0.0000 N   0  0  0  0  0  0  0  0  0  0  0  0
   -1.0614   -2.1007    0.0000 C   0  0  0  0  0  0  0  0  0  0  0  0
   -0.4890   -0.7142    0.0000 N   0  0  0  0  0  0  0  0  0  0  0  0
    0.9691   -0.3623    0.0000 C   0  0  0  0  0  0  0  0  0  0  0  0
    1.5415    1.0242    0.0000 O   0  0  0  0  0  0  0  0  0  0  0  0
    3.0370    0.9083    0.0000 C   0  0  0  0  0  0  0  0  0  0  0  0
    4.0098    2.0500    0.0000 C   0  0  0  0  0  0  0  0  0  0  0  0
    5.4850    1.7784    0.0000 O   0  0  0  0  0  0  0  0  0  0  0  0
    3.3889   -0.5499    0.0000 C   0  0  0  0  0  0  0  0  0  0  0  0
    4.7754   -1.1223    0.0000 O   0  0  0  0  0  0  0  0  0  0  0  0
    2.1109   -1.3351    0.0000 C   0  0  0  0  0  0  0  0  0  0  0  0
    1.9949   -2.8307    0.0000 O   0  0  0  0  0  0  0  0  0  0  0  0
  1  2  1  0
  2  3  2  0
  3  4  1  0
  4  5  2  0
  5  6  1  0
  6  7  2  0
  7  8  1  0
  8  9  2  0
  9 10  1  0
 10 11  1  0
 11 12  1  0
 12 13  1  0
 13 14  1  6
 14 15  1  0
 13 16  1  0
 16 17  1  1
 16 18  1  0
 18 19  1  6
  7  2  1  0
 18 11  1  0
 10  6  1  0
M  END
> <Identifier>
Drug_226

> <Carcinogen>
0

$$$$

     RDKit          2D

 22 23  0  0  0  0  0  0  0  0999 V2000
   -0.6370   -3.4536    0.0000 N   0  0  0  0  0  0  0  0  0  0  0  0
   -0.9566   -1.9880    0.0000 C   0  0  0  0  0  0  0  0  0  0  0  0
    0.1529   -0.9785    0.0000 N   0  0  0  0  0  0  0  0  0  0  0  0
    1.5819   -1.4346    0.0000 C   0  0  0  0  0  0  0  0  0  0  0  0
    1.9014   -2.9002    0.0000 O   0  0  0  0  0  0  0  0  0  0  0  0
    2.6913   -0.4251    0.0000 C   0  0  0  0  0  0  0  0  0  0  0  0
    4.1203   -0.8812    0.0000 N   0  0  0  0  0  0  0  0  0  0  0  0
    5.2298    0.1283    0.0000 C   0  0  0  0  0  0  0  0  0  0  0  0
    6.6588   -0.3277    0.0000 Cl  0  0  0  0  0  0  0  0  0  0  0  0
    4.9103    1.5939    0.0000 C   0  0  0  0  0  0  0  0  0  0  0  0
    6.0197    2.6034    0.0000 N   0  0  0  0  0  0  0  0  0  0  0  0
    3.4813    2.0500    0.0000 N   0  0  0  0  0  0  0  0  0  0  0  0
    2.3718    1.0405    0.0000 C   0  0  0  0  0  0  0  0  0  0  0  0
    0.9428    1.4966    0.0000 N   0  0  0  0  0  0  0  0  0  0  0  0
   -2.3855   -1.5320    0.0000 N   0  0  0  0  0  0  0  0  0  0  0  0
   -2.7051   -0.0664    0.0000 C   0  0  0  0  0  0  0  0  0  0  0  0
   -4.1341    0.3897    0.0000 C   0  0  0  0  0  0  0  0  0  0  0  0
   -4.4536    1.8553    0.0000 C   0  0  0  0  0  0  0  0  0  0  0  0
   -5.8826    2.3113    0.0000 C   0  0  0  0  0  0  0  0  0  0  0  0
   -6.9920    1.3018    0.0000 C   0  0  0  0  0  0  0  0  0  0  0  0
   -6.6725   -0.1637    0.0000 C   0  0  0  0  0  0  0  0  0  0  0  0
   -5.2435   -0.6198    0.0000 C   0  0  0  0  0  0  0  0  0  0  0  0
  1  2  1  0
  2  3  2  0
  3  4  1  0
  4  5  2  0
  4  6  1  0
  6  7  2  0
  7  8  1  0
  8  9  1  0
  8 10  2  0
 10 11  1  0
 10 12  1  0
 12 13  2  0
 13 14  1  0
  2 15  1  0
 15 16  1  0
 16 17  1  0
 17 18  2  0
 18 19  1  0
 19 20  2  0
 20 21  1  0
 21 22  2  0
 13  6  1  0
 22 17  1  0
M  END
> <Identifier>
Drug_227

> <Carcinogen>
0

$$$$

     RDKit          2D

 23 25  0  0  0  0  0  0  0  0999 V2000
   -4.6579    2.3614    0.0000 C   0  0  0  0  0  0  0  0  0  0  0  0
   -3.7170    1.1932    0.0000 O   0  0  0  0  0  0  0  0  0  0  0  0
   -2.2348    1.4240    0.0000 C   0  0  0  0  0  0  0  0  0  0  0  0
   -1.6936    2.8229    0.0000 C   0  0  0  0  0  0  0  0  0  0  0  0
   -0.2115    3.0537    0.0000 C   0  0  0  0  0  0  0  0  0  0  0  0
    0.7294    1.8856    0.0000 C   0  0  0  0  0  0  0  0  0  0  0  0
    0.1882    0.4866    0.0000 C   0  0  0  0  0  0  0  0  0  0  0  0
   -1.2939    0.2558    0.0000 C   0  0  0  0  0  0  0  0  0  0  0  0
    1.1292   -0.6816    0.0000 N   0  0  0  0  0  0  0  0  0  0  0  0
    0.5880   -2.0805    0.0000 C   0  0  0  0  0  0  0  0  0  0  0  0
   -0.8942   -2.3113    0.0000 C   0  0  0  0  0  0  0  0  0  0  0  0
   -1.4354   -3.7103    0.0000 C   0  0  0  0  0  0  0  0  0  0  0  0
   -1.8351   -1.1432    0.0000 C   0  0  0  0  0  0  0  0  0  0  0  0
   -3.3172   -1.3739    0.0000 N   0  0  0  0  0  0  0  0  0  0  0  0
   -4.2582   -0.2058    0.0000 C   0  0  0  0  0  0  0  0  0  0  0  0
   -3.8584   -2.7729    0.0000 C   0  0  0  0  0  0  0  0  0  0  0  0
    2.6113   -0.4508    0.0000 C   0  0  0  0  0  0  0  0  0  0  0  0
    3.5523   -1.6190    0.0000 C   0  0  0  0  0  0  0  0  0  0  0  0
    5.0344   -1.3882    0.0000 C   0  0  0  0  0  0  0  0  0  0  0  0
    5.5756    0.0108    0.0000 C   0  0  0  0  0  0  0  0  0  0  0  0
    4.6347    1.1790    0.0000 C   0  0  0  0  0  0  0  0  0  0  0  0
    3.1525    0.9482    0.0000 C   0  0  0  0  0  0  0  0  0  0  0  0
    2.2116    2.1164    0.0000 S   0  0  0  0  0  0  0  0  0  0  0  0
  1  2  1  0
  2  3  1  0
  3  4  2  0
  4  5  1  0
  5  6  2  0
  6  7  1  0
  7  8  2  0
  7  9  1  0
  9 10  1  0
 10 11  1  0
 11 12  1  6
 11 13  1  0
 13 14  1  0
 14 15  1  0
 14 16  1  0
  9 17  1  0
 17 18  2  0
 18 19  1  0
 19 20  2  0
 20 21  1  0
 21 22  2  0
 22 23  1  0
  8  3  1  0
 22 17  1  0
 23  6  1  0
M  END
> <Identifier>
Drug_228

> <Carcinogen>
0

$$$$

     RDKit          2D

 19 19  0  0  0  0  0  0  0  0999 V2000
   -8.7434    0.2892    0.0000 C   0  0  0  0  0  0  0  0  0  0  0  0
   -7.5759   -0.6526    0.0000 O   0  0  0  0  0  0  0  0  0  0  0  0
   -6.1766   -0.1124    0.0000 C   0  0  0  0  0  0  0  0  0  0  0  0
   -5.0091   -1.0542    0.0000 C   0  0  0  0  0  0  0  0  0  0  0  0
   -3.6097   -0.5140    0.0000 C   0  0  0  0  0  0  0  0  0  0  0  0
   -3.3779    0.9680    0.0000 C   0  0  0  0  0  0  0  0  0  0  0  0
   -1.9785    1.5082    0.0000 C   0  0  0  0  0  0  0  0  0  0  0  0
   -0.8110    0.5664    0.0000 C   0  0  0  0  0  0  0  0  0  0  0  0
    0.5883    1.1066    0.0000 O   0  0  0  0  0  0  0  0  0  0  0  0
    1.7558    0.1648    0.0000 C   0  0  0  0  0  0  0  0  0  0  0  0
    3.1552    0.7050    0.0000 C   0  0  0  0  0  0  0  0  0  0  0  0
    3.3870    2.1870    0.0000 O   0  0  0  0  0  0  0  0  0  0  0  0
    4.3227   -0.2368    0.0000 C   0  0  0  0  0  0  0  0  0  0  0  0
    5.7220    0.3034    0.0000 N   0  0  0  0  0  0  0  0  0  0  0  0
    6.8895   -0.6384    0.0000 C   0  0  0  0  0  0  0  0  0  0  0  0
    8.2889   -0.0982    0.0000 C   0  0  0  0  0  0  0  0  0  0  0  0
    6.6577   -2.1203    0.0000 C   0  0  0  0  0  0  0  0  0  0  0  0
   -1.0429   -0.9156    0.0000 C   0  0  0  0  0  0  0  0  0  0  0  0
   -2.4422   -1.4558    0.0000 C   0  0  0  0  0  0  0  0  0  0  0  0
  1  2  1  0
  2  3  1  0
  3  4  1  0
  4  5  1  0
  5  6  2  0
  6  7  1  0
  7  8  2  0
  8  9  1  0
  9 10  1  0
 10 11  1  0
 11 12  1  0
 11 13  1  0
 13 14  1  0
 14 15  1  0
 15 16  1  0
 15 17  1  0
  8 18  1  0
 18 19  2  0
 19  5  1  0
M  END
> <Identifier>
Drug_229

> <Carcinogen>
0

$$$$

     RDKit          2D

  7  7  0  0  0  0  0  0  0  0999 V2000
   -1.6042   -1.6317    0.0000 C   0  0  0  0  0  0  0  0  0  0  0  0
   -0.3906   -0.7500    0.0000 N   0  0  0  0  0  0  0  0  0  0  0  0
    1.0360   -1.2135    0.0000 C   0  0  0  0  0  0  0  0  0  0  0  0
    1.9176    0.0000    0.0000 C   0  0  0  0  0  0  0  0  0  0  0  0
    1.0360    1.2135    0.0000 N   0  0  0  0  0  0  0  0  0  0  0  0
   -0.3906    0.7500    0.0000 C   0  0  0  0  0  0  0  0  0  0  0  0
   -1.6042    1.6317    0.0000 S   0  0  0  0  0  0  0  0  0  0  0  0
  1  2  1  0
  2  3  1  0
  3  4  2  0
  4  5  1  0
  5  6  2  0
  6  7  1  0
  6  2  1  0
M  END
> <Identifier>
Drug_230

> <Carcinogen>
0

$$$$

     RDKit          2D

 19 20  0  0  0  0  0  0  0  0999 V2000
   -2.7507   -3.1559    0.0000 C   0  0  0  0  0  0  0  0  0  0  0  0
   -2.9497   -1.6692    0.0000 C   0  0  0  0  0  0  0  0  0  0  0  0
   -4.3367   -1.0981    0.0000 C   0  0  0  0  0  0  0  0  0  0  0  0
   -4.5357    0.3886    0.0000 C   0  0  0  0  0  0  0  0  0  0  0  0
   -5.9227    0.9597    0.0000 C   0  0  0  0  0  0  0  0  0  0  0  0
   -3.3476    1.3043    0.0000 N   0  0  0  0  0  0  0  0  0  0  0  0
   -1.9606    0.7333    0.0000 C   0  0  0  0  0  0  0  0  0  0  0  0
   -0.7725    1.6489    0.0000 N   0  0  0  0  0  0  0  0  0  0  0  0
    0.6145    1.0779    0.0000 S   0  0  0  0  0  0  0  0  0  0  0  0
    0.0435   -0.3092    0.0000 O   0  0  0  0  0  0  0  0  0  0  0  0
    1.1856    2.4649    0.0000 O   0  0  0  0  0  0  0  0  0  0  0  0
    2.0016    0.5068    0.0000 C   0  0  0  0  0  0  0  0  0  0  0  0
    2.2005   -0.9799    0.0000 C   0  0  0  0  0  0  0  0  0  0  0  0
    3.5876   -1.5510    0.0000 C   0  0  0  0  0  0  0  0  0  0  0  0
    4.7757   -0.6353    0.0000 C   0  0  0  0  0  0  0  0  0  0  0  0
    6.1627   -1.2064    0.0000 N   0  0  0  0  0  0  0  0  0  0  0  0
    4.5767    0.8514    0.0000 C   0  0  0  0  0  0  0  0  0  0  0  0
    3.1896    1.4225    0.0000 C   0  0  0  0  0  0  0  0  0  0  0  0
   -1.7616   -0.7535    0.0000 N   0  0  0  0  0  0  0  0  0  0  0  0
  1  2  1  0
  2  3  2  0
  3  4  1  0
  4  5  1  0
  4  6  2  0
  6  7  1  0
  7  8  1  0
  8  9  1  0
  9 10  2  0
  9 11  2  0
  9 12  1  0
 12 13  2  0
 13 14  1  0
 14 15  2  0
 15 16  1  0
 15 17  1  0
 17 18  2  0
  7 19  2  0
 19  2  1  0
 18 12  1  0
M  END
> <Identifier>
Drug_231

> <Carcinogen>
0

$$$$

     RDKit          2D

 33 38  0  0  0  0  0  0  0  0999 V2000
    2.0370   -2.3384    0.0000 C   0  0  0  0  0  0  0  0  0  0  0  0
    0.5475   -2.5161    0.0000 C   0  0  0  0  0  0  0  0  0  0  0  0
   -1.6273   -0.2167    0.0000 N   0  0  0  0  0  0  0  0  0  0  0  0
   -1.7500   -0.1163    0.0000 C   0  0  0  0  0  0  0  0  0  0  0  0
   -3.5792   -0.3919    0.0000 C   0  0  0  0  0  0  0  0  0  0  0  0
   -4.7560    0.5383    0.0000 C   0  0  0  0  0  0  0  0  0  0  0  0
   -6.1499   -0.0157    0.0000 O   0  0  0  0  0  0  0  0  0  0  0  0
   -7.3267    0.9144    0.0000 C   0  0  0  0  0  0  0  0  0  0  0  0
   -3.7964   -1.8761    0.0000 C   0  0  0  0  0  0  0  0  0  0  0  0
   -2.6196   -2.8062    0.0000 C   0  0  0  0  0  0  0  0  0  0  0  0
   -1.2257   -2.2522    0.0000 C   0  0  0  0  0  0  0  0  0  0  0  0
   -0.0489   -3.1824    0.0000 O   0  0  0  0  0  0  0  0  0  0  0  0
   -1.0085   -0.7680    0.0000 C   0  0  0  0  0  0  0  0  0  0  0  0
    0.2398    0.0637    0.0000 C   0  0  0  0  0  0  0  0  0  0  0  0
   -0.1655    1.5079    0.0000 C   0  0  0  0  0  0  0  0  0  0  0  0
    0.3461    2.3486    0.0000 O   0  0  0  0  0  0  0  0  0  0  0  0
   -1.6643    1.5688    0.0000 C   0  0  0  0  0  0  0  0  0  0  0  0
   -2.4960    2.8170    0.0000 O   0  0  0  0  0  0  0  0  0  0  0  0
   -1.8308    4.1615    0.0000 C   0  0  0  0  0  0  0  0  0  0  0  0
   -2.1853    0.1621    0.0000 C   0  0  0  0  0  0  0  0  0  0  0  0
    1.2411    0.9869    0.0000 C   0  0  0  0  0  0  0  0  0  0  0  0
    1.1952    1.9700    0.0000 O   0  0  0  0  0  0  0  0  0  0  0  0
    2.3956    1.9446    0.0000 C   0  0  0  0  0  0  0  0  0  0  0  0
    3.8022    1.4236    0.0000 C   0  0  0  0  0  0  0  0  0  0  0  0
    4.9568    2.3812    0.0000 O   0  0  0  0  0  0  0  0  0  0  0  0
    6.3634    1.8602    0.0000 C   0  0  0  0  0  0  0  0  0  0  0  0
    4.0543   -0.0551    0.0000 C   0  0  0  0  0  0  0  0  0  0  0  0
    2.6084    0.3440    0.0000 C   0  0  0  0  0  0  0  0  0  0  0  0
    0.3387   -1.4494    0.0000 C   0  0  0  0  0  0  0  0  0  0  0  0
    1.4932   -0.4917    0.0000 C   0  0  0  0  0  0  0  0  0  0  0  0
    2.8998   -1.0128    0.0000 C   0  0  0  0  0  0  0  0  0  0  0  0
    3.1519   -2.4914    0.0000 O   0  0  0  0  0  0  0  0  0  0  0  0
    4.5585   -3.0124    0.0000 C   0  0  0  0  0  0  0  0  0  0  0  0
  1  2  1  0
  2  3  1  0
  3  4  1  0
  4  5  1  0
  5  6  1  1
  6  7  1  0
  7  8  1  0
  5  9  1  0
  9 10  1  0
 10 11  1  0
 11 12  1  1
 11 13  1  0
 13 14  1  1
 14 15  1  0
 15 16  1  1
 15 17  1  0
 17 18  1  6
 18 19  1  0
 17 20  1  0
 15 21  1  0
 21 22  1  6
 21 23  1  0
 23 24  1  0
 24 25  1  6
 25 26  1  0
 24 27  1  0
 27 28  1  1
 29 28  1  1
 30 29  1  1
 30 31  1  0
 31 32  1  6
 32 33  1  0
 14  3  1  0
 30 21  1  0
 20  5  1  1
 31 27  1  0
 20 13  1  0
 29 13  1  0
M  END
> <Identifier>
Drug_232

> <Carcinogen>
0

$$$$

     RDKit          2D

 21 23  0  0  0  0  0  0  0  0999 V2000
    4.9336   -2.9233    0.0000 C   0  0  0  0  0  0  0  0  0  0  0  0
    5.3114   -1.4717    0.0000 O   0  0  0  0  0  0  0  0  0  0  0  0
    4.2432   -0.4186    0.0000 C   0  0  0  0  0  0  0  0  0  0  0  0
    2.7971   -0.8173    0.0000 C   0  0  0  0  0  0  0  0  0  0  0  0
    1.7289    0.2357    0.0000 C   0  0  0  0  0  0  0  0  0  0  0  0
    0.2828   -0.1629    0.0000 C   0  0  0  0  0  0  0  0  0  0  0  0
   -0.0950   -1.6145    0.0000 O   0  0  0  0  0  0  0  0  0  0  0  0
   -0.7854    0.8901    0.0000 O   0  0  0  0  0  0  0  0  0  0  0  0
   -2.2315    0.4915    0.0000 C   0  0  0  0  0  0  0  0  0  0  0  0
   -2.6093   -0.9601    0.0000 C   0  0  0  0  0  0  0  0  0  0  0  0
   -4.0554   -1.3588    0.0000 C   0  0  0  0  0  0  0  0  0  0  0  0
   -5.5538   -1.2910    0.0000 C   0  0  0  0  0  0  0  0  0  0  0  0
   -5.9525    0.1550    0.0000 C   0  0  0  0  0  0  0  0  0  0  0  0
   -4.7004    0.9810    0.0000 C   0  0  0  0  0  0  0  0  0  0  0  0
   -3.2998    1.5445    0.0000 C   0  0  0  0  0  0  0  0  0  0  0  0
   -3.5279    0.0454    0.0000 N   0  0  0  0  0  0  0  0  0  0  0  0
   -2.8335    0.4369    0.0000 C   0  0  0  0  0  0  0  0  0  0  0  0
    2.1067    1.6874    0.0000 C   0  0  0  0  0  0  0  0  0  0  0  0
    3.5527    2.0860    0.0000 C   0  0  0  0  0  0  0  0  0  0  0  0
    4.6210    1.0330    0.0000 C   0  0  0  0  0  0  0  0  0  0  0  0
    6.0671    1.4316    0.0000 O   0  0  0  0  0  0  0  0  0  0  0  0
  1  2  1  0
  2  3  1  0
  3  4  2  0
  4  5  1  0
  5  6  1  0
  6  7  2  0
  6  8  1  0
  9  8  1  6
  9 10  1  0
 11 10  1  6
 11 12  1  0
 12 13  1  0
 14 13  1  6
 14 15  1  0
 14 16  1  0
 16 17  1  0
  5 18  2  0
 18 19  1  0
 19 20  2  0
 20 21  1  0
 20  3  1  0
 15  9  1  0
 16 11  1  0
M  END
> <Identifier>
Drug_233

> <Carcinogen>
0

$$$$

     RDKit          2D

 22 23  0  0  0  0  0  0  0  0999 V2000
   -6.4706    0.5685    0.0000 C   0  0  0  0  0  0  0  0  0  0  0  0
   -5.1044    1.1876    0.0000 O   0  0  0  0  0  0  0  0  0  0  0  0
   -3.8850    0.3139    0.0000 C   0  0  0  0  0  0  0  0  0  0  0  0
   -4.0320   -1.1788    0.0000 C   0  0  0  0  0  0  0  0  0  0  0  0
   -2.8127   -2.0525    0.0000 C   0  0  0  0  0  0  0  0  0  0  0  0
   -2.9596   -3.5453    0.0000 O   0  0  0  0  0  0  0  0  0  0  0  0
   -1.4464   -1.4334    0.0000 N   0  0  0  0  0  0  0  0  0  0  0  0
   -0.2271   -2.3070    0.0000 C   0  0  0  0  0  0  0  0  0  0  0  0
   -1.2995    0.0594    0.0000 C   0  0  0  0  0  0  0  0  0  0  0  0
    0.0668    0.6785    0.0000 C   0  0  0  0  0  0  0  0  0  0  0  0
    1.2861   -0.1951    0.0000 O   0  0  0  0  0  0  0  0  0  0  0  0
    2.6524    0.4240    0.0000 C   0  0  0  0  0  0  0  0  0  0  0  0
    3.8717   -0.4496    0.0000 C   0  0  0  0  0  0  0  0  0  0  0  0
    3.7247   -1.9424    0.0000 O   0  0  0  0  0  0  0  0  0  0  0  0
    5.2380    0.1695    0.0000 C   0  0  0  0  0  0  0  0  0  0  0  0
    4.6188    1.5357    0.0000 C   0  0  0  0  0  0  0  0  0  0  0  0
    5.8571   -1.1968    0.0000 C   0  0  0  0  0  0  0  0  0  0  0  0
    6.6042    0.7886    0.0000 O   0  0  0  0  0  0  0  0  0  0  0  0
    0.2137    2.1713    0.0000 C   0  0  0  0  0  0  0  0  0  0  0  0
   -1.0056    3.0450    0.0000 C   0  0  0  0  0  0  0  0  0  0  0  0
   -2.3718    2.4259    0.0000 C   0  0  0  0  0  0  0  0  0  0  0  0
   -2.5188    0.9331    0.0000 C   0  0  0  0  0  0  0  0  0  0  0  0
  1  2  1  0
  2  3  1  0
  3  4  2  0
  4  5  1  0
  5  6  2  0
  5  7  1  0
  7  8  1  0
  7  9  1  0
  9 10  2  0
 10 11  1  0
 11 12  1  0
 12 13  1  0
 13 14  1  0
 13 15  1  0
 15 16  1  0
 15 17  1  0
 15 18  1  0
 10 19  1  0
 19 20  2  0
 20 21  1  0
 21 22  2  0
 22  3  1  0
 22  9  1  0
M  END
> <Identifier>
Drug_234

> <Carcinogen>
0

$$$$

     RDKit          2D

 22 23  0  0  0  0  0  0  0  0999 V2000
   -4.9367   -2.4480    0.0000 C   0  0  0  0  0  0  0  0  0  0  0  0
   -3.7051   -1.5919    0.0000 O   0  0  0  0  0  0  0  0  0  0  0  0
   -3.8307   -0.0972    0.0000 C   0  0  0  0  0  0  0  0  0  0  0  0
   -5.1880    0.5414    0.0000 C   0  0  0  0  0  0  0  0  0  0  0  0
   -2.5991    0.7590    0.0000 C   0  0  0  0  0  0  0  0  0  0  0  0
   -3.4552    1.9907    0.0000 O   0  0  0  0  0  0  0  0  0  0  0  0
   -1.7429   -0.4726    0.0000 C   0  0  0  0  0  0  0  0  0  0  0  0
   -2.3815   -1.8299    0.0000 O   0  0  0  0  0  0  0  0  0  0  0  0
   -0.2482   -0.3470    0.0000 O   0  0  0  0  0  0  0  0  0  0  0  0
    0.6080   -1.5787    0.0000 C   0  0  0  0  0  0  0  0  0  0  0  0
    2.1027   -1.4530    0.0000 C   0  0  0  0  0  0  0  0  0  0  0  0
    3.0829   -2.5885    0.0000 C   0  0  0  0  0  0  0  0  0  0  0  0
    4.4657   -2.0071    0.0000 C   0  0  0  0  0  0  0  0  0  0  0  0
    4.3401   -0.5124    0.0000 N   0  0  0  0  0  0  0  0  0  0  0  0
    5.1170    0.7707    0.0000 C   0  0  0  0  0  0  0  0  0  0  0  0
    4.1368    1.9062    0.0000 C   0  0  0  0  0  0  0  0  0  0  0  0
    2.7540    1.3248    0.0000 C   0  0  0  0  0  0  0  0  0  0  0  0
    1.4709    2.1017    0.0000 O   0  0  0  0  0  0  0  0  0  0  0  0
    2.8797   -0.1699    0.0000 C   0  0  0  0  0  0  0  0  0  0  0  0
   -1.3674    1.6152    0.0000 C   0  0  0  0  0  0  0  0  0  0  0  0
   -1.4930    3.1099    0.0000 C   0  0  0  0  0  0  0  0  0  0  0  0
   -0.0101    0.9766    0.0000 C   0  0  0  0  0  0  0  0  0  0  0  0
  1  2  1  0
  2  3  1  0
  3  4  1  6
  3  5  1  0
  5  6  1  0
  5  7  1  0
  7  8  2  0
  7  9  1  0
  9 10  1  0
 10 11  1  0
 11 12  2  0
 12 13  1  0
 13 14  1  0
 14 15  1  0
 15 16  1  0
 16 17  1  0
 17 18  1  1
 17 19  1  0
  5 20  1  0
 20 21  1  0
 20 22  1  0
 19 11  1  6
 19 14  1  0
M  END
> <Identifier>
Drug_235

> <Carcinogen>
0

$$$$

     RDKit          2D

 27 32  0  0  0  0  0  0  0  0999 V2000
    0.9681   -2.4257    0.0000 C   0  0  0  0  0  0  0  0  0  0  0  0
   -0.5162   -2.2090    0.0000 C   0  0  0  0  0  0  0  0  0  0  0  0
   -2.0166    0.5768    0.0000 N   0  0  0  0  0  0  0  0  0  0  0  0
   -2.1089    0.7058    0.0000 C   0  0  0  0  0  0  0  0  0  0  0  0
   -3.9466    0.9175    0.0000 C   0  0  0  0  0  0  0  0  0  0  0  0
   -4.8402    2.1222    0.0000 C   0  0  0  0  0  0  0  0  0  0  0  0
   -4.5431   -0.4588    0.0000 C   0  0  0  0  0  0  0  0  0  0  0  0
   -3.6495   -1.6636    0.0000 C   0  0  0  0  0  0  0  0  0  0  0  0
   -2.1593   -1.4921    0.0000 C   0  0  0  0  0  0  0  0  0  0  0  0
   -1.2657   -2.6968    0.0000 O   0  0  0  0  0  0  0  0  0  0  0  0
   -1.5628   -0.1158    0.0000 C   0  0  0  0  0  0  0  0  0  0  0  0
   -0.1409    0.3618    0.0000 C   0  0  0  0  0  0  0  0  0  0  0  0
   -0.1557    1.8617    0.0000 C   0  0  0  0  0  0  0  0  0  0  0  0
   -1.5868    2.3112    0.0000 C   0  0  0  0  0  0  0  0  0  0  0  0
   -2.4564    1.0890    0.0000 C   0  0  0  0  0  0  0  0  0  0  0  0
    1.0665    0.9921    0.0000 C   0  0  0  0  0  0  0  0  0  0  0  0
    1.2085    2.4854    0.0000 O   0  0  0  0  0  0  0  0  0  0  0  0
    2.4307    1.6157    0.0000 C   0  0  0  0  0  0  0  0  0  0  0  0
    3.6529    0.7461    0.0000 C   0  0  0  0  0  0  0  0  0  0  0  0
    5.0171    1.3697    0.0000 O   0  0  0  0  0  0  0  0  0  0  0  0
    6.2393    0.5000    0.0000 C   0  0  0  0  0  0  0  0  0  0  0  0
    3.5108   -0.7472    0.0000 C   0  0  0  0  0  0  0  0  0  0  0  0
    2.2189    0.0150    0.0000 C   0  0  0  0  0  0  0  0  0  0  0  0
   -0.4398   -1.1248    0.0000 C   0  0  0  0  0  0  0  0  0  0  0  0
    0.9244   -0.5012    0.0000 C   0  0  0  0  0  0  0  0  0  0  0  0
    2.1466   -1.3708    0.0000 C   0  0  0  0  0  0  0  0  0  0  0  0
    2.0046   -2.8641    0.0000 O   0  0  0  0  0  0  0  0  0  0  0  0
  1  2  1  0
  2  3  1  0
  3  4  1  0
  4  5  1  0
  5  6  1  1
  5  7  1  0
  7  8  1  0
  8  9  1  0
  9 10  1  1
  9 11  1  0
 11 12  1  1
 12 13  1  0
 13 14  1  6
 15 14  1  1
 13 16  1  0
 16 17  1  6
 16 18  1  0
 18 19  1  0
 19 20  1  6
 20 21  1  0
 19 22  1  0
 22 23  1  1
 24 23  1  1
 24 25  1  0
 25 26  1  1
 26 27  1  0
 12  3  1  0
 25 16  1  0
 15  5  1  0
 26 22  1  0
 15 11  1  0
 24 11  1  0
M  END
> <Identifier>
Drug_236

> <Carcinogen>
0

$$$$

     RDKit          2D

 12 12  0  0  0  0  0  0  0  0999 V2000
    3.2500   -1.9486    0.0000 C   0  0  0  0  0  0  0  0  0  0  0  0
    2.5000   -0.6495    0.0000 O   0  0  0  0  0  0  0  0  0  0  0  0
    1.0000   -0.6495    0.0000 C   0  0  0  0  0  0  0  0  0  0  0  0
    0.2500   -1.9486    0.0000 C   0  0  0  0  0  0  0  0  0  0  0  0
   -1.2500   -1.9486    0.0000 C   0  0  0  0  0  0  0  0  0  0  0  0
   -2.0000   -0.6495    0.0000 N   0  0  0  0  0  0  0  0  0  0  0  0
   -3.5000   -0.6495    0.0000 C   0  0  0  0  0  0  0  0  0  0  0  0
   -1.2500    0.6495    0.0000 C   0  0  0  0  0  0  0  0  0  0  0  0
   -2.0000    1.9486    0.0000 O   0  0  0  0  0  0  0  0  0  0  0  0
    0.2500    0.6495    0.0000 C   0  0  0  0  0  0  0  0  0  0  0  0
    1.0000    1.9486    0.0000 C   0  0  0  0  0  0  0  0  0  0  0  0
    1.7500    3.2476    0.0000 N   0  0  0  0  0  0  0  0  0  0  0  0
  1  2  1  0
  2  3  1  0
  3  4  1  0
  4  5  2  0
  5  6  1  0
  6  7  1  0
  6  8  1  0
  8  9  2  0
  8 10  1  0
 10 11  1  0
 11 12  3  0
 10  3  2  0
M  END
> <Identifier>
Drug_237

> <Carcinogen>
0

$$$$

     RDKit          2D

 30 35  0  0  0  0  0  0  0  0999 V2000
    3.4741    2.2514    0.0000 C   0  0  0  0  0  0  0  0  0  0  0  0
    3.2043    0.7759    0.0000 C   0  0  0  0  0  0  0  0  0  0  0  0
    1.8520    0.1268    0.0000 C   0  0  0  0  0  0  0  0  0  0  0  0
    2.0515   -1.3599    0.0000 C   0  0  0  0  0  0  0  0  0  0  0  0
    0.6992   -2.0089    0.0000 C   0  0  0  0  0  0  0  0  0  0  0  0
   -0.3360   -0.9234    0.0000 C   0  0  0  0  0  0  0  0  0  0  0  0
   -1.8354   -0.9663    0.0000 C   0  0  0  0  0  0  0  0  0  0  0  0
   -2.5479   -2.2863    0.0000 C   0  0  0  0  0  0  0  0  0  0  0  0
   -4.0473   -2.3292    0.0000 C   0  0  0  0  0  0  0  0  0  0  0  0
   -4.8342   -1.0522    0.0000 C   0  0  0  0  0  0  0  0  0  0  0  0
   -6.3336   -1.0951    0.0000 C   0  0  0  0  0  0  0  0  0  0  0  0
   -7.1204    0.1819    0.0000 C   0  0  0  0  0  0  0  0  0  0  0  0
   -8.6198    0.1390    0.0000 O   0  0  0  0  0  0  0  0  0  0  0  0
   -6.4079    1.5019    0.0000 C   0  0  0  0  0  0  0  0  0  0  0  0
   -4.9085    1.5448    0.0000 C   0  0  0  0  0  0  0  0  0  0  0  0
   -4.1217    0.2678    0.0000 C   0  0  0  0  0  0  0  0  0  0  0  0
   -3.4092    1.5877    0.0000 C   0  0  0  0  0  0  0  0  0  0  0  0
   -2.6223    0.3107    0.0000 C   0  0  0  0  0  0  0  0  0  0  0  0
   -1.9098    1.6307    0.0000 C   0  0  0  0  0  0  0  0  0  0  0  0
   -0.4104    1.6736    0.0000 C   0  0  0  0  0  0  0  0  0  0  0  0
    0.3765    0.3966    0.0000 C   0  0  0  0  0  0  0  0  0  0  0  0
    1.2231    1.6348    0.0000 C   0  0  0  0  0  0  0  0  0  0  0  0
    3.5270   -1.6296    0.0000 O   0  0  0  0  0  0  0  0  0  0  0  0
    4.2395   -0.3096    0.0000 C   0  0  0  0  0  0  0  0  0  0  0  0
    5.1556   -1.4974    0.0000 C   0  0  0  0  0  0  0  0  0  0  0  0
    6.6422   -1.2980    0.0000 C   0  0  0  0  0  0  0  0  0  0  0  0
    7.2129    0.0892    0.0000 C   0  0  0  0  0  0  0  0  0  0  0  0
    8.6996    0.2886    0.0000 C   0  0  0  0  0  0  0  0  0  0  0  0
    6.2968    1.2770    0.0000 C   0  0  0  0  0  0  0  0  0  0  0  0
    4.8102    1.0776    0.0000 N   0  0  0  0  0  0  0  0  0  0  0  0
  2  1  1  6
  2  3  1  0
  3  4  1  1
  4  5  1  1
  6  5  1  1
  6  7  1  0
  7  8  1  6
  8  9  1  0
  9 10  2  0
 10 11  1  0
 11 12  1  0
 12 13  1  1
 12 14  1  0
 14 15  1  0
 15 16  1  0
 16 17  1  1
 16 18  1  0
 18 19  1  1
 19 20  1  0
 20 21  1  0
 21 22  1  1
  4 23  1  0
 23 24  1  0
 24 25  1  1
 25 26  1  0
 26 27  1  0
 27 28  1  6
 27 29  1  0
 29 30  1  0
 24  2  1  0
 21  3  1  0
 30 24  1  0
 21  6  1  0
 18  7  1  0
 16 10  1  0
M  END
> <Identifier>
Drug_238

> <Carcinogen>
0

$$$$

     RDKit          2D

 18 18  0  0  0  0  0  0  0  0999 V2000
   -4.6895    1.4679    0.0000 C   0  0  0  0  0  0  0  0  0  0  0  0
   -3.7313    0.3139    0.0000 N   0  0  0  0  0  0  0  0  0  0  0  0
   -4.2516   -1.0930    0.0000 N   0  0  0  0  0  0  0  0  0  0  0  0
   -5.7302   -1.3458    0.0000 O   0  0  0  0  0  0  0  0  0  0  0  0
   -2.2527    0.5667    0.0000 C   0  0  0  0  0  0  0  0  0  0  0  0
   -1.7324    1.9735    0.0000 O   0  0  0  0  0  0  0  0  0  0  0  0
   -1.2945   -0.5874    0.0000 N   0  0  0  0  0  0  0  0  0  0  0  0
    0.1840   -0.3346    0.0000 C   0  0  0  0  0  0  0  0  0  0  0  0
    0.7044    1.0722    0.0000 C   0  0  0  0  0  0  0  0  0  0  0  0
   -0.2538    2.2263    0.0000 O   0  0  0  0  0  0  0  0  0  0  0  0
    2.1829    1.3250    0.0000 O   0  0  0  0  0  0  0  0  0  0  0  0
    3.1411    0.1710    0.0000 C   0  0  0  0  0  0  0  0  0  0  0  0
    4.6197    0.4238    0.0000 C   0  0  0  0  0  0  0  0  0  0  0  0
    5.1400    1.8306    0.0000 O   0  0  0  0  0  0  0  0  0  0  0  0
    2.6208   -1.2359    0.0000 C   0  0  0  0  0  0  0  0  0  0  0  0
    3.5790   -2.3900    0.0000 O   0  0  0  0  0  0  0  0  0  0  0  0
    1.1422   -1.4887    0.0000 C   0  0  0  0  0  0  0  0  0  0  0  0
    0.6219   -2.8955    0.0000 O   0  0  0  0  0  0  0  0  0  0  0  0
  1  2  1  0
  2  3  1  0
  3  4  2  0
  2  5  1  0
  5  6  2  0
  5  7  1  0
  8  7  1  1
  8  9  1  0
  9 10  1  1
  9 11  1  0
 11 12  1  0
 12 13  1  6
 13 14  1  0
 12 15  1  0
 15 16  1  1
 15 17  1  0
 17 18  1  6
 17  8  1  0
M  END
> <Identifier>
Drug_239

> <Carcinogen>
0

$$$$

     RDKit          2D

 24 29  0  0  0  0  0  0  0  0999 V2000
   -4.2679    1.3842    0.0000 C   0  0  0  0  0  0  0  0  0  0  0  0
   -2.8422    1.8505    0.0000 C   0  0  0  0  0  0  0  0  0  0  0  0
   -1.7255    0.8490    0.0000 C   0  0  0  0  0  0  0  0  0  0  0  0
   -3.0946    0.2362    0.0000 C   0  0  0  0  0  0  0  0  0  0  0  0
   -2.9349   -1.2553    0.0000 N   0  0  0  0  0  0  0  0  0  0  0  0
   -4.0476   -2.2612    0.0000 C   0  0  0  0  0  0  0  0  0  0  0  0
   -1.4670   -1.5642    0.0000 C   0  0  0  0  0  0  0  0  0  0  0  0
   -2.2837   -0.3060    0.0000 C   0  0  0  0  0  0  0  0  0  0  0  0
   -1.2270    0.2557    0.0000 C   0  0  0  0  0  0  0  0  0  0  0  0
    0.1153    0.9248    0.0000 O   0  0  0  0  0  0  0  0  0  0  0  0
    1.2077    1.4786    0.0000 C   0  0  0  0  0  0  0  0  0  0  0  0
   -0.0132    1.9252    0.0000 C   0  0  0  0  0  0  0  0  0  0  0  0
   -1.2648    2.2765    0.0000 C   0  0  0  0  0  0  0  0  0  0  0  0
    0.7470    0.0511    0.0000 C   0  0  0  0  0  0  0  0  0  0  0  0
    0.4380   -1.4167    0.0000 C   0  0  0  0  0  0  0  0  0  0  0  0
   -0.7421   -2.3426    0.0000 O   0  0  0  0  0  0  0  0  0  0  0  0
    1.7386   -2.1642    0.0000 N   0  0  0  0  0  0  0  0  0  0  0  0
    2.8513   -1.1583    0.0000 C   0  0  0  0  0  0  0  0  0  0  0  0
    4.3434   -1.3121    0.0000 C   0  0  0  0  0  0  0  0  0  0  0  0
    5.2227   -0.0968    0.0000 C   0  0  0  0  0  0  0  0  0  0  0  0
    4.6098    1.2723    0.0000 C   0  0  0  0  0  0  0  0  0  0  0  0
    3.1177    1.4261    0.0000 C   0  0  0  0  0  0  0  0  0  0  0  0
    2.2385    0.2108    0.0000 C   0  0  0  0  0  0  0  0  0  0  0  0
   -0.7196   -0.2637    0.0000 C   0  0  0  0  0  0  0  0  0  0  0  0
  1  2  2  0
  3  2  1  6
  3  4  1  0
  4  5  1  0
  5  6  1  0
  7  5  1  6
  7  8  1  0
  8  9  1  1
  9 10  1  0
 10 11  1  0
 11 12  1  0
 12 13  1  0
 14 11  1  6
 14 15  1  0
 15 16  2  0
 15 17  1  0
 17 18  1  0
 18 19  2  0
 19 20  1  0
 20 21  2  0
 21 22  1  0
 22 23  2  0
 24 14  1  1
 13  3  1  0
 23 14  1  0
 24  3  1  0
 24  7  1  0
 13  8  1  0
 23 18  1  0
M  END
> <Identifier>
Drug_240

> <Carcinogen>
0

$$$$

     RDKit          2D

 12 11  0  0  0  0  0  0  0  0999 V2000
   -4.6881   -1.4864    0.0000 N   0  0  0  0  0  0  0  0  0  0  0  0
   -4.5621    0.0083    0.0000 C   0  0  0  0  0  0  0  0  0  0  0  0
   -5.7935    0.8647    0.0000 N   0  0  0  0  0  0  0  0  0  0  0  0
   -3.2046    0.6465    0.0000 N   0  0  0  0  0  0  0  0  0  0  0  0
   -1.9732   -0.2100    0.0000 C   0  0  0  0  0  0  0  0  0  0  0  0
   -0.6157    0.4282    0.0000 C   0  0  0  0  0  0  0  0  0  0  0  0
    0.6157   -0.4282    0.0000 C   0  0  0  0  0  0  0  0  0  0  0  0
    1.9732    0.2100    0.0000 C   0  0  0  0  0  0  0  0  0  0  0  0
    3.2046   -0.6465    0.0000 N   0  0  0  0  0  0  0  0  0  0  0  0
    4.5621   -0.0083    0.0000 C   0  0  0  0  0  0  0  0  0  0  0  0
    4.6881    1.4864    0.0000 N   0  0  0  0  0  0  0  0  0  0  0  0
    5.7935   -0.8647    0.0000 N   0  0  0  0  0  0  0  0  0  0  0  0
  1  2  2  0
  2  3  1  0
  2  4  1  0
  4  5  1  0
  5  6  1  0
  6  7  1  0
  7  8  1  0
  8  9  1  0
  9 10  1  0
 10 11  2  0
 10 12  1  0
M  END
> <Identifier>
Drug_241

> <Carcinogen>
0

$$$$

     RDKit          2D

 31 34  0  0  0  0  0  0  0  0999 V2000
   -2.0801   -4.7883    0.0000 O   0  0  0  0  0  0  0  0  0  0  0  0
   -1.6641   -3.3472    0.0000 C   0  0  0  0  0  0  0  0  0  0  0  0
   -2.7042   -2.2663    0.0000 C   0  0  0  0  0  0  0  0  0  0  0  0
   -2.2881   -0.8252    0.0000 C   0  0  0  0  0  0  0  0  0  0  0  0
   -3.3282    0.2557    0.0000 C   0  0  0  0  0  0  0  0  0  0  0  0
   -2.9122    1.6968    0.0000 C   0  0  0  0  0  0  0  0  0  0  0  0
   -3.9522    2.7777    0.0000 C   0  0  0  0  0  0  0  0  0  0  0  0
   -5.4083    2.4174    0.0000 C   0  0  0  0  0  0  0  0  0  0  0  0
   -6.4484    3.4983    0.0000 O   0  0  0  0  0  0  0  0  0  0  0  0
   -5.8244    0.9763    0.0000 C   0  0  0  0  0  0  0  0  0  0  0  0
   -4.7843   -0.1046    0.0000 C   0  0  0  0  0  0  0  0  0  0  0  0
   -0.8321   -0.4649    0.0000 O   0  0  0  0  0  0  0  0  0  0  0  0
    0.2080   -1.5458    0.0000 C   0  0  0  0  0  0  0  0  0  0  0  0
    1.6641   -1.1855    0.0000 C   0  0  0  0  0  0  0  0  0  0  0  0
    2.0801    0.2557    0.0000 C   0  0  0  0  0  0  0  0  0  0  0  0
    3.5362    0.6160    0.0000 O   0  0  0  0  0  0  0  0  0  0  0  0
    3.9522    2.0571    0.0000 C   0  0  0  0  0  0  0  0  0  0  0  0
    5.4083    2.4174    0.0000 C   0  0  0  0  0  0  0  0  0  0  0  0
    6.4484    1.3366    0.0000 O   0  0  0  0  0  0  0  0  0  0  0  0
    2.9122    3.1380    0.0000 C   0  0  0  0  0  0  0  0  0  0  0  0
    3.3282    4.5791    0.0000 O   0  0  0  0  0  0  0  0  0  0  0  0
    1.4561    2.7777    0.0000 C   0  0  0  0  0  0  0  0  0  0  0  0
    0.4160    3.8586    0.0000 O   0  0  0  0  0  0  0  0  0  0  0  0
    1.0401    1.3366    0.0000 C   0  0  0  0  0  0  0  0  0  0  0  0
   -0.4160    0.9763    0.0000 O   0  0  0  0  0  0  0  0  0  0  0  0
    2.7042   -2.2663    0.0000 C   0  0  0  0  0  0  0  0  0  0  0  0
    4.1603   -1.9060    0.0000 O   0  0  0  0  0  0  0  0  0  0  0  0
    2.2881   -3.7075    0.0000 C   0  0  0  0  0  0  0  0  0  0  0  0
    0.8321   -4.0678    0.0000 C   0  0  0  0  0  0  0  0  0  0  0  0
    0.4160   -5.5089    0.0000 O   0  0  0  0  0  0  0  0  0  0  0  0
   -0.2080   -2.9869    0.0000 C   0  0  0  0  0  0  0  0  0  0  0  0
  1  2  2  0
  2  3  1  0
  3  4  2  0
  4  5  1  0
  5  6  2  0
  6  7  1  0
  7  8  2  0
  8  9  1  0
  8 10  1  0
 10 11  2  0
  4 12  1  0
 12 13  1  0
 13 14  2  0
 14 15  1  0
 15 16  1  0
 16 17  1  0
 17 18  1  1
 18 19  1  0
 17 20  1  0
 20 21  1  6
 20 22  1  0
 22 23  1  1
 22 24  1  0
 24 25  1  6
 14 26  1  0
 26 27  1  0
 26 28  2  0
 28 29  1  0
 29 30  1  0
 29 31  2  0
 31  2  1  0
 11  5  1  0
 31 13  1  0
 24 15  1  0
M  END
> <Identifier>
Drug_242

> <Carcinogen>
0

$$$$

     RDKit          2D

 42 48  0  0  0  0  0  0  0  0999 V2000
    9.1732    1.1601    0.0000 C   0  0  0  0  0  0  0  0  0  0  0  0
    7.9992    0.2263    0.0000 C   0  0  0  0  0  0  0  0  0  0  0  0
    8.2209   -1.2572    0.0000 C   0  0  0  0  0  0  0  0  0  0  0  0
    6.6036    0.7761    0.0000 C   0  0  0  0  0  0  0  0  0  0  0  0
    5.4297   -0.1576    0.0000 C   0  0  0  0  0  0  0  0  0  0  0  0
    5.6513   -1.6411    0.0000 C   0  0  0  0  0  0  0  0  0  0  0  0
    7.0470   -2.1909    0.0000 O   0  0  0  0  0  0  0  0  0  0  0  0
    4.4774   -2.5749    0.0000 N   0  0  0  0  0  0  0  0  0  0  0  0
    4.3858   -4.0721    0.0000 C   0  0  0  0  0  0  0  0  0  0  0  0
    2.9336   -4.4476    0.0000 C   0  0  0  0  0  0  0  0  0  0  0  0
    2.1277   -3.1825    0.0000 C   0  0  0  0  0  0  0  0  0  0  0  0
    3.0818   -2.0251    0.0000 C   0  0  0  0  0  0  0  0  0  0  0  0
    2.8601   -0.5416    0.0000 C   0  0  0  0  0  0  0  0  0  0  0  0
    1.5950   -1.3475    0.0000 O   0  0  0  0  0  0  0  0  0  0  0  0
    1.6093    0.2864    0.0000 O   0  0  0  0  0  0  0  0  0  0  0  0
    2.0102    1.7318    0.0000 C   0  0  0  0  0  0  0  0  0  0  0  0
    0.5308    1.9794    0.0000 N   0  0  0  0  0  0  0  0  0  0  0  0
   -0.4234    0.8220    0.0000 C   0  0  0  0  0  0  0  0  0  0  0  0
    0.1019   -0.5830    0.0000 O   0  0  0  0  0  0  0  0  0  0  0  0
   -1.9028    1.0696    0.0000 C   0  0  0  0  0  0  0  0  0  0  0  0
   -2.8569   -0.0878    0.0000 C   0  0  0  0  0  0  0  0  0  0  0  0
   -4.3364    0.1598    0.0000 C   0  0  0  0  0  0  0  0  0  0  0  0
   -5.2905   -0.9976    0.0000 C   0  0  0  0  0  0  0  0  0  0  0  0
   -4.7652   -2.4026    0.0000 C   0  0  0  0  0  0  0  0  0  0  0  0
   -5.7194   -3.5601    0.0000 C   0  0  0  0  0  0  0  0  0  0  0  0
   -7.1988   -3.3124    0.0000 C   0  0  0  0  0  0  0  0  0  0  0  0
   -7.7241   -1.9074    0.0000 C   0  0  0  0  0  0  0  0  0  0  0  0
   -9.0546   -1.2148    0.0000 N   0  0  0  0  0  0  0  0  0  0  0  0
   -8.8070    0.2646    0.0000 C   0  0  0  0  0  0  0  0  0  0  0  0
   -7.2952    0.6550    0.0000 C   0  0  0  0  0  0  0  0  0  0  0  0
   -6.7699   -0.7500    0.0000 C   0  0  0  0  0  0  0  0  0  0  0  0
   -6.3411    1.8124    0.0000 C   0  0  0  0  0  0  0  0  0  0  0  0
   -4.8616    1.5648    0.0000 C   0  0  0  0  0  0  0  0  0  0  0  0
   -3.9075    2.7222    0.0000 N   0  0  0  0  0  0  0  0  0  0  0  0
   -4.4328    4.1272    0.0000 C   0  0  0  0  0  0  0  0  0  0  0  0
   -2.4281    2.4746    0.0000 C   0  0  0  0  0  0  0  0  0  0  0  0
    2.1018    3.2290    0.0000 C   0  0  0  0  0  0  0  0  0  0  0  0
    3.4442    3.8983    0.0000 C   0  0  0  0  0  0  0  0  0  0  0  0
    0.8510    4.0569    0.0000 C   0  0  0  0  0  0  0  0  0  0  0  0
    3.5088    1.7972    0.0000 C   0  0  0  0  0  0  0  0  0  0  0  0
    4.3367    3.0480    0.0000 O   0  0  0  0  0  0  0  0  0  0  0  0
    4.0341    0.3922    0.0000 N   0  0  0  0  0  0  0  0  0  0  0  0
  1  2  1  0
  2  3  1  0
  2  4  1  0
  5  4  1  1
  5  6  1  0
  6  7  2  0
  6  8  1  0
  8  9  1  0
  9 10  1  0
 10 11  1  0
 12 11  1  1
 12 13  1  0
 13 14  1  1
 13 15  1  0
 15 16  1  0
 16 17  1  1
 17 18  1  0
 18 19  2  0
 20 18  1  6
 20 21  1  0
 21 22  2  0
 22 23  1  0
 23 24  2  0
 24 25  1  0
 25 26  2  0
 26 27  1  0
 27 28  1  0
 28 29  1  0
 29 30  2  0
 30 31  1  0
 30 32  1  0
 33 32  1  1
 33 34  1  0
 34 35  1  0
 34 36  1  0
 16 37  1  0
 37 38  1  0
 37 39  1  0
 16 40  1  0
 40 41  2  0
 40 42  1  0
 42  5  1  0
 12  8  1  0
 42 13  1  0
 36 20  1  0
 33 22  1  0
 31 23  1  0
 31 27  2  0
M  END
> <Identifier>
Drug_243

> <Carcinogen>
0

$$$$

     RDKit          2D

 16 17  0  0  0  0  0  0  0  0999 V2000
   -6.1772   -0.0793    0.0000 C   0  0  0  0  0  0  0  0  0  0  0  0
   -4.7600    0.4121    0.0000 C   0  0  0  0  0  0  0  0  0  0  0  0
   -3.6258   -0.5696    0.0000 O   0  0  0  0  0  0  0  0  0  0  0  0
   -2.2086   -0.0783    0.0000 C   0  0  0  0  0  0  0  0  0  0  0  0
   -1.9255    1.3948    0.0000 C   0  0  0  0  0  0  0  0  0  0  0  0
   -0.5083    1.8861    0.0000 C   0  0  0  0  0  0  0  0  0  0  0  0
    0.6259    0.9044    0.0000 C   0  0  0  0  0  0  0  0  0  0  0  0
    0.3428   -0.5686    0.0000 C   0  0  0  0  0  0  0  0  0  0  0  0
   -1.0745   -1.0600    0.0000 C   0  0  0  0  0  0  0  0  0  0  0  0
    1.4769   -1.5503    0.0000 C   0  0  0  0  0  0  0  0  0  0  0  0
    1.1938   -3.0233    0.0000 C   0  0  0  0  0  0  0  0  0  0  0  0
    2.8942   -1.0589    0.0000 C   0  0  0  0  0  0  0  0  0  0  0  0
    3.1773    0.4141    0.0000 C   0  0  0  0  0  0  0  0  0  0  0  0
    3.9471    1.7015    0.0000 C   0  0  0  0  0  0  0  0  0  0  0  0
    4.5788   -0.1205    0.0000 C   0  0  0  0  0  0  0  0  0  0  0  0
    2.0431    1.3958    0.0000 N   0  0  0  0  0  0  0  0  0  0  0  0
  1  2  1  0
  2  3  1  0
  3  4  1  0
  4  5  2  0
  5  6  1  0
  6  7  2  0
  7  8  1  0
  8  9  2  0
  8 10  1  0
 10 11  1  0
 10 12  2  0
 12 13  1  0
 13 14  1  0
 13 15  1  0
 13 16  1  0
  9  4  1  0
 16  7  1  0
M  END
> <Identifier>
Drug_244

> <Carcinogen>
0

$$$$

     RDKit          2D

 42 42  0  0  0  0  0  0  0  0999 V2000
  -22.6121   -1.4379    0.0000 C   0  0  0  0  0  0  0  0  0  0  0  0
  -21.2875   -0.7341    0.0000 C   0  0  0  0  0  0  0  0  0  0  0  0
  -20.0157   -1.5293    0.0000 C   0  0  0  0  0  0  0  0  0  0  0  0
  -18.6911   -0.8254    0.0000 C   0  0  0  0  0  0  0  0  0  0  0  0
  -17.4192   -1.6206    0.0000 N   0  0  0  0  0  0  0  0  0  0  0  0
  -16.0946   -0.9168    0.0000 C   0  0  0  0  0  0  0  0  0  0  0  0
  -16.0418    0.5823    0.0000 C   0  0  0  0  0  0  0  0  0  0  0  0
  -14.7172    1.2862    0.0000 C   0  0  0  0  0  0  0  0  0  0  0  0
  -13.4454    0.4909    0.0000 C   0  0  0  0  0  0  0  0  0  0  0  0
  -12.1208    1.1948    0.0000 C   0  0  0  0  0  0  0  0  0  0  0  0
  -12.0680    2.6939    0.0000 O   0  0  0  0  0  0  0  0  0  0  0  0
  -10.8489    0.3996    0.0000 O   0  0  0  0  0  0  0  0  0  0  0  0
   -9.5243    1.1034    0.0000 C   0  0  0  0  0  0  0  0  0  0  0  0
   -8.2524    0.3082    0.0000 C   0  0  0  0  0  0  0  0  0  0  0  0
   -6.9278    1.0121    0.0000 O   0  0  0  0  0  0  0  0  0  0  0  0
   -5.6560    0.2169    0.0000 C   0  0  0  0  0  0  0  0  0  0  0  0
   -4.3314    0.9207    0.0000 C   0  0  0  0  0  0  0  0  0  0  0  0
   -3.0595    0.1255    0.0000 O   0  0  0  0  0  0  0  0  0  0  0  0
   -1.7349    0.8294    0.0000 C   0  0  0  0  0  0  0  0  0  0  0  0
   -0.4630    0.0342    0.0000 C   0  0  0  0  0  0  0  0  0  0  0  0
    0.8616    0.7380    0.0000 O   0  0  0  0  0  0  0  0  0  0  0  0
    2.1334   -0.0572    0.0000 C   0  0  0  0  0  0  0  0  0  0  0  0
    3.4580    0.6467    0.0000 C   0  0  0  0  0  0  0  0  0  0  0  0
    4.7299   -0.1486    0.0000 O   0  0  0  0  0  0  0  0  0  0  0  0
    6.0545    0.5553    0.0000 C   0  0  0  0  0  0  0  0  0  0  0  0
    7.3264   -0.2399    0.0000 C   0  0  0  0  0  0  0  0  0  0  0  0
    8.6510    0.4639    0.0000 O   0  0  0  0  0  0  0  0  0  0  0  0
    9.9229   -0.3313    0.0000 C   0  0  0  0  0  0  0  0  0  0  0  0
   11.2475    0.3726    0.0000 C   0  0  0  0  0  0  0  0  0  0  0  0
   12.5193   -0.4226    0.0000 O   0  0  0  0  0  0  0  0  0  0  0  0
   13.8439    0.2812    0.0000 C   0  0  0  0  0  0  0  0  0  0  0  0
   15.1158   -0.5140    0.0000 C   0  0  0  0  0  0  0  0  0  0  0  0
   16.4404    0.1899    0.0000 O   0  0  0  0  0  0  0  0  0  0  0  0
   17.7123   -0.6053    0.0000 C   0  0  0  0  0  0  0  0  0  0  0  0
   19.0369    0.0985    0.0000 C   0  0  0  0  0  0  0  0  0  0  0  0
   20.3087   -0.6967    0.0000 O   0  0  0  0  0  0  0  0  0  0  0  0
   21.6333    0.0072    0.0000 C   0  0  0  0  0  0  0  0  0  0  0  0
   22.9052   -0.7880    0.0000 C   0  0  0  0  0  0  0  0  0  0  0  0
   24.2298   -0.0842    0.0000 O   0  0  0  0  0  0  0  0  0  0  0  0
   25.5017   -0.8794    0.0000 C   0  0  0  0  0  0  0  0  0  0  0  0
  -13.4981   -1.0081    0.0000 C   0  0  0  0  0  0  0  0  0  0  0  0
  -14.8227   -1.7120    0.0000 C   0  0  0  0  0  0  0  0  0  0  0  0
  1  2  1  0
  2  3  1  0
  3  4  1  0
  4  5  1  0
  5  6  1  0
  6  7  2  0
  7  8  1  0
  8  9  2  0
  9 10  1  0
 10 11  2  0
 10 12  1  0
 12 13  1  0
 13 14  1  0
 14 15  1  0
 15 16  1  0
 16 17  1  0
 17 18  1  0
 18 19  1  0
 19 20  1  0
 20 21  1  0
 21 22  1  0
 22 23  1  0
 23 24  1  0
 24 25  1  0
 25 26  1  0
 26 27  1  0
 27 28  1  0
 28 29  1  0
 29 30  1  0
 30 31  1  0
 31 32  1  0
 32 33  1  0
 33 34  1  0
 34 35  1  0
 35 36  1  0
 36 37  1  0
 37 38  1  0
 38 39  1  0
 39 40  1  0
  9 41  1  0
 41 42  2  0
 42  6  1  0
M  END
> <Identifier>
Drug_245

> <Carcinogen>
0

$$$$

     RDKit          2D

114123  0  0  0  0  0  0  0  0999 V2000
  -12.3323    0.1760    0.0000 C   0  0  0  0  0  0  0  0  0  0  0  0
  -11.0982   -0.6766    0.0000 C   0  0  0  0  0  0  0  0  0  0  0  0
   -9.7427   -0.0341    0.0000 N   0  0  0  0  0  0  0  0  0  0  0  0
   -8.5086   -0.8867    0.0000 C   0  0  0  0  0  0  0  0  0  0  0  0
   -8.6299   -2.3818    0.0000 O   0  0  0  0  0  0  0  0  0  0  0  0
   -7.1532   -0.2442    0.0000 C   0  0  0  0  0  0  0  0  0  0  0  0
   -7.0318    1.2509    0.0000 C   0  0  0  0  0  0  0  0  0  0  0  0
   -5.9190   -1.0968    0.0000 N   0  0  0  0  0  0  0  0  0  0  0  0
   -6.0403   -2.5919    0.0000 C   0  0  0  0  0  0  0  0  0  0  0  0
   -7.3958   -3.2344    0.0000 O   0  0  0  0  0  0  0  0  0  0  0  0
   -4.8062   -3.4445    0.0000 C   0  0  0  0  0  0  0  0  0  0  0  0
   -4.7706   -4.9441    0.0000 C   0  0  0  0  0  0  0  0  0  0  0  0
   -3.3334   -5.3736    0.0000 S   0  0  0  0  0  0  0  0  0  0  0  0
   -2.4808   -4.1394    0.0000 C   0  0  0  0  0  0  0  0  0  0  0  0
   -0.9812   -4.1038    0.0000 C   0  0  0  0  0  0  0  0  0  0  0  0
   -0.2623   -2.7873    0.0000 N   0  0  0  0  0  0  0  0  0  0  0  0
    1.2373   -2.7517    0.0000 C   0  0  0  0  0  0  0  0  0  0  0  0
    0.7859   -1.3212    0.0000 C   0  0  0  0  0  0  0  0  0  0  0  0
   -0.6121   -0.7775    0.0000 C   0  0  0  0  0  0  0  0  0  0  0  0
   -0.5270    0.7201    0.0000 S   0  0  0  0  0  0  0  0  0  0  0  0
    0.9236    1.1019    0.0000 C   0  0  0  0  0  0  0  0  0  0  0  0
    1.7350   -0.1597    0.0000 N   0  0  0  0  0  0  0  0  0  0  0  0
    1.5656    3.0222    0.0000 C   0  0  0  0  0  0  0  0  0  0  0  0
    2.4864    4.2063    0.0000 N   0  0  0  0  0  0  0  0  0  0  0  0
    3.6638    5.1356    0.0000 C   0  0  0  0  0  0  0  0  0  0  0  0
    2.8832    6.4165    0.0000 O   0  0  0  0  0  0  0  0  0  0  0  0
    5.0294    5.7562    0.0000 C   0  0  0  0  0  0  0  0  0  0  0  0
    5.4007    7.2095    0.0000 C   0  0  0  0  0  0  0  0  0  0  0  0
    6.8976    7.3055    0.0000 S   0  0  0  0  0  0  0  0  0  0  0  0
    8.0014    5.9468    0.0000 C   0  0  0  0  0  0  0  0  0  0  0  0
    6.5039    6.0319    0.0000 N   0  0  0  0  0  0  0  0  0  0  0  0
    9.4351    5.5057    0.0000 C   0  0  0  0  0  0  0  0  0  0  0  0
   10.0458    6.8758    0.0000 C   0  0  0  0  0  0  0  0  0  0  0  0
   10.6565    8.2458    0.0000 C   0  0  0  0  0  0  0  0  0  0  0  0
   11.4159    6.2651    0.0000 O   0  0  0  0  0  0  0  0  0  0  0  0
    8.6757    7.4864    0.0000 C   0  0  0  0  0  0  0  0  0  0  0  0
    7.4618    6.6052    0.0000 C   0  0  0  0  0  0  0  0  0  0  0  0
    8.5195    8.9783    0.0000 O   0  0  0  0  0  0  0  0  0  0  0  0
   10.7216    4.7343    0.0000 N   0  0  0  0  0  0  0  0  0  0  0  0
   11.7861    3.6775    0.0000 C   0  0  0  0  0  0  0  0  0  0  0  0
   12.9635    4.6069    0.0000 O   0  0  0  0  0  0  0  0  0  0  0  0
   12.5667    2.3967    0.0000 C   0  0  0  0  0  0  0  0  0  0  0  0
   14.0542    2.2033    0.0000 C   0  0  0  0  0  0  0  0  0  0  0  0
   14.3299    0.7288    0.0000 S   0  0  0  0  0  0  0  0  0  0  0  0
   13.1142   -0.5307    0.0000 C   0  0  0  0  0  0  0  0  0  0  0  0
   13.0182    0.9662    0.0000 N   0  0  0  0  0  0  0  0  0  0  0  0
   12.8491   -2.0071    0.0000 C   0  0  0  0  0  0  0  0  0  0  0  0
   14.2828   -2.4482    0.0000 C   0  0  0  0  0  0  0  0  0  0  0  0
   15.3816   -1.4271    0.0000 C   0  0  0  0  0  0  0  0  0  0  0  0
   12.2385   -3.3772    0.0000 N   0  0  0  0  0  0  0  0  0  0  0  0
   11.3177   -4.5613    0.0000 C   0  0  0  0  0  0  0  0  0  0  0  0
   12.3821   -5.6181    0.0000 O   0  0  0  0  0  0  0  0  0  0  0  0
   10.1402   -5.4907    0.0000 C   0  0  0  0  0  0  0  0  0  0  0  0
   10.9209   -6.7715    0.0000 C   0  0  0  0  0  0  0  0  0  0  0  0
   10.2020   -8.0880    0.0000 C   0  0  0  0  0  0  0  0  0  0  0  0
   12.4205   -6.7359    0.0000 O   0  0  0  0  0  0  0  0  0  0  0  0
    8.7746   -6.1112    0.0000 N   0  0  0  0  0  0  0  0  0  0  0  0
    7.3002   -6.3869    0.0000 C   0  0  0  0  0  0  0  0  0  0  0  0
    7.3962   -7.8839    0.0000 O   0  0  0  0  0  0  0  0  0  0  0  0
    5.8026   -6.3018    0.0000 C   0  0  0  0  0  0  0  0  0  0  0  0
    4.7984   -7.4161    0.0000 C   0  0  0  0  0  0  0  0  0  0  0  0
    3.4284   -6.8054    0.0000 S   0  0  0  0  0  0  0  0  0  0  0  0
    3.0824   -5.0894    0.0000 C   0  0  0  0  0  0  0  0  0  0  0  0
    4.3689   -5.8607    0.0000 N   0  0  0  0  0  0  0  0  0  0  0  0
    2.0179   -4.0325    0.0000 C   0  0  0  0  0  0  0  0  0  0  0  0
    1.2990   -5.3490    0.0000 C   0  0  0  0  0  0  0  0  0  0  0  0
   -0.2006   -5.3847    0.0000 C   0  0  0  0  0  0  0  0  0  0  0  0
    0.9887   -4.1050    0.0000 N   0  0  0  0  0  0  0  0  0  0  0  0
    0.4298   -4.5675    0.0000 C   0  0  0  0  0  0  0  0  0  0  0  0
    0.8175   -7.4602    0.0000 O   0  0  0  0  0  0  0  0  0  0  0  0
   -1.0911   -3.9791    0.0000 C   0  0  0  0  0  0  0  0  0  0  0  0
   -0.8293   -8.2994    0.0000 C   0  0  0  0  0  0  0  0  0  0  0  0
   -1.7311   -4.4178    0.0000 N   0  0  0  0  0  0  0  0  0  0  0  0
   -2.9123   -3.4860    0.0000 C   0  0  0  0  0  0  0  0  0  0  0  0
   -4.4735   -8.7470    0.0000 O   0  0  0  0  0  0  0  0  0  0  0  0
   -3.8569   -3.6825    0.0000 C   0  0  0  0  0  0  0  0  0  0  0  0
   -6.2744   -8.3313    0.0000 C   0  0  0  0  0  0  0  0  0  0  0  0
   -4.4455   -2.1438    0.0000 N   0  0  0  0  0  0  0  0  0  0  0  0
   -6.0905   -2.2321    0.0000 C   0  0  0  0  0  0  0  0  0  0  0  0
   -9.3537   -6.3317    0.0000 O   0  0  0  0  0  0  0  0  0  0  0  0
   -6.2953   -1.2893    0.0000 C   0  0  0  0  0  0  0  0  0  0  0  0
  -10.4661   -4.8557    0.0000 C   0  0  0  0  0  0  0  0  0  0  0  0
   -7.6269   -0.5893    0.0000 N   0  0  0  0  0  0  0  0  0  0  0  0
   -7.4866    0.1738    0.0000 C   0  0  0  0  0  0  0  0  0  0  0  0
  -11.5397   -1.3446    0.0000 O   0  0  0  0  0  0  0  0  0  0  0  0
   -8.6428    1.3239    0.0000 C   0  0  0  0  0  0  0  0  0  0  0  0
  -11.4431    0.5012    0.0000 C   0  0  0  0  0  0  0  0  0  0  0  0
  -11.9643    1.9077    0.0000 C   0  0  0  0  0  0  0  0  0  0  0  0
  -12.4005   -0.6535    0.0000 C   0  0  0  0  0  0  0  0  0  0  0  0
  -13.8792   -0.4017    0.0000 C   0  0  0  0  0  0  0  0  0  0  0  0
   -8.4476    2.0225    0.0000 N   0  0  0  0  0  0  0  0  0  0  0  0
   -8.8002    2.9922    0.0000 C   0  0  0  0  0  0  0  0  0  0  0  0
   -9.4802    4.3827    0.0000 C   0  0  0  0  0  0  0  0  0  0  0  0
   -8.9754    5.7952    0.0000 C   0  0  0  0  0  0  0  0  0  0  0  0
   -7.4997    6.0643    0.0000 C   0  0  0  0  0  0  0  0  0  0  0  0
   -5.7225    7.1698    0.0000 C   0  0  0  0  0  0  0  0  0  0  0  0
   -6.3211    8.5452    0.0000 C   0  0  0  0  0  0  0  0  0  0  0  0
   -5.4292    9.7512    0.0000 C   0  0  0  0  0  0  0  0  0  0  0  0
   -7.8115    8.7145    0.0000 O   0  0  0  0  0  0  0  0  0  0  0  0
   -4.2321    7.0004    0.0000 C   0  0  0  0  0  0  0  0  0  0  0  0
   -3.6335    5.6250    0.0000 C   0  0  0  0  0  0  0  0  0  0  0  0
   -5.1223    5.4422    0.0000 N   0  0  0  0  0  0  0  0  0  0  0  0
   -6.5288    4.9209    0.0000 C   0  0  0  0  0  0  0  0  0  0  0  0
   -7.7772    4.0893    0.0000 C   0  0  0  0  0  0  0  0  0  0  0  0
   -8.4426    5.4337    0.0000 O   0  0  0  0  0  0  0  0  0  0  0  0
   -2.1427    5.4596    0.0000 C   0  0  0  0  0  0  0  0  0  0  0  0
   -1.8053    6.9212    0.0000 O   0  0  0  0  0  0  0  0  0  0  0  0
   -0.7302    4.9549    0.0000 O   0  0  0  0  0  0  0  0  0  0  0  0
    0.5279    4.1380    0.0000 C   0  0  0  0  0  0  0  0  0  0  0  0
    1.4853    5.2926    0.0000 C   0  0  0  0  0  0  0  0  0  0  0  0
   -3.3910   -2.9472    0.0000 N   0  0  0  0  0  0  0  0  0  0  0  0
  -11.2195   -2.1716    0.0000 C   0  0  0  0  0  0  0  0  0  0  0  0
  -12.5749   -2.8141    0.0000 N   0  0  0  0  0  0  0  0  0  0  0  0
   -9.8157   -2.7003    0.0000 O   0  0  0  0  0  0  0  0  0  0  0  0
  1  2  2  0
  2  3  1  0
  3  4  1  0
  4  5  2  0
  4  6  1  0
  6  7  2  0
  6  8  1  0
  8  9  1  0
  9 10  2  0
  9 11  1  0
 11 12  2  0
 12 13  1  0
 13 14  1  0
 14 15  1  0
 15 16  2  0
 17 16  1  1
 17 18  1  0
 18 19  2  0
 19 20  1  0
 20 21  1  0
 21 22  2  0
 21 23  1  0
 23 24  1  6
 24 25  1  0
 25 26  2  0
 25 27  1  0
 27 28  2  0
 28 29  1  0
 29 30  1  0
 30 31  2  0
 30 32  1  0
 32 33  1  0
 33 34  1  1
 33 35  1  0
 33 36  1  0
 36 37  1  1
 36 38  1  0
 32 39  1  6
 39 40  1  0
 40 41  2  0
 40 42  1  0
 42 43  1  1
 43 44  1  0
 44 45  1  0
 45 46  2  0
 45 47  1  0
 47 48  2  0
 48 49  1  0
 47 50  1  0
 50 51  1  0
 51 52  2  0
 51 53  1  0
 53 54  1  0
 54 55  1  6
 54 56  1  0
 53 57  1  6
 57 58  1  0
 58 59  2  0
 58 60  1  0
 60 61  2  0
 61 62  1  0
 62 63  1  0
 63 64  2  0
 63 65  1  0
 65 66  1  1
 66 67  1  0
 65 68  1  0
 68 69  1  0
 69 70  2  0
 69 71  1  0
 71 72  1  1
 71 73  1  0
 73 74  1  0
 74 75  2  0
 74 76  1  0
 76 77  2  0
 76 78  1  0
 78 79  1  0
 79 80  2  0
 79 81  1  0
 81 82  1  1
 81 83  1  0
 83 84  1  0
 84 85  2  0
 84 86  1  0
 86 87  1  6
 87 88  1  0
 87 89  1  0
 89 90  1  0
 86 91  1  0
 92 91  1  6
 92 93  1  0
 93 94  2  0
 94 95  1  0
 95 96  2  0
 96 97  1  0
 97 98  1  1
 97 99  1  0
 96100  1  0
100101  2  0
101102  1  0
102103  2  0
103104  1  0
104105  1  6
101106  1  0
106107  2  0
106108  1  0
108109  1  0
109110  1  6
 14111  2  0
  2112  1  0
112113  1  0
112114  2  0
111 11  1  0
 67 15  1  0
104 92  1  0
 65 17  1  0
103 95  1  0
 22 18  1  0
109 23  1  0
 31 27  1  0
 46 42  1  0
 64 60  1  0
M  END
> <Identifier>
Drug_246

> <Carcinogen>
0

$$$$

     RDKit          2D

 46 52  0  0  0  0  0  0  0  0999 V2000
   -9.0970    0.0681    0.0000 C   0  0  0  0  0  0  0  0  0  0  0  0
   -7.7699   -0.6309    0.0000 O   0  0  0  0  0  0  0  0  0  0  0  0
   -6.5009    0.1690    0.0000 C   0  0  0  0  0  0  0  0  0  0  0  0
   -6.5592    1.6678    0.0000 C   0  0  0  0  0  0  0  0  0  0  0  0
   -5.2902    2.4677    0.0000 C   0  0  0  0  0  0  0  0  0  0  0  0
   -3.7970    2.0840    0.0000 C   0  0  0  0  0  0  0  0  0  0  0  0
   -4.7158    0.8984    0.0000 C   0  0  0  0  0  0  0  0  0  0  0  0
   -5.1737   -0.5300    0.0000 C   0  0  0  0  0  0  0  0  0  0  0  0
   -5.1155   -2.0289    0.0000 O   0  0  0  0  0  0  0  0  0  0  0  0
   -4.5481   -3.4175    0.0000 C   0  0  0  0  0  0  0  0  0  0  0  0
   -4.4899   -4.9163    0.0000 C   0  0  0  0  0  0  0  0  0  0  0  0
   -3.1627   -5.6153    0.0000 C   0  0  0  0  0  0  0  0  0  0  0  0
   -1.8938   -4.8155    0.0000 C   0  0  0  0  0  0  0  0  0  0  0  0
   -1.9520   -3.3166    0.0000 C   0  0  0  0  0  0  0  0  0  0  0  0
   -3.2792   -2.6176    0.0000 C   0  0  0  0  0  0  0  0  0  0  0  0
    0.7393   -5.1125    0.0000 C   0  0  0  0  0  0  0  0  0  0  0  0
    2.0082   -4.3126    0.0000 C   0  0  0  0  0  0  0  0  0  0  0  0
    2.9271   -3.1270    0.0000 C   0  0  0  0  0  0  0  0  0  0  0  0
    3.3850   -1.6986    0.0000 C   0  0  0  0  0  0  0  0  0  0  0  0
    3.3268   -0.1997    0.0000 C   0  0  0  0  0  0  0  0  0  0  0  0
    4.9027   -0.7784    0.0000 C   0  0  0  0  0  0  0  0  0  0  0  0
    5.8839    0.3562    0.0000 O   0  0  0  0  0  0  0  0  0  0  0  0
    7.3571    0.0736    0.0000 C   0  0  0  0  0  0  0  0  0  0  0  0
    5.3946   -2.1954    0.0000 C   0  0  0  0  0  0  0  0  0  0  0  0
    4.4133   -3.3299    0.0000 C   0  0  0  0  0  0  0  0  0  0  0  0
    4.9807   -4.7185    0.0000 C   0  0  0  0  0  0  0  0  0  0  0  0
    4.0618   -5.9041    0.0000 C   0  0  0  0  0  0  0  0  0  0  0  0
    2.5756   -5.7012    0.0000 N   0  0  0  0  0  0  0  0  0  0  0  0
    1.6568   -6.8868    0.0000 C   0  0  0  0  0  0  0  0  0  0  0  0
    2.7594    1.1888    0.0000 O   0  0  0  0  0  0  0  0  0  0  0  0
    1.7513    2.2996    0.0000 C   0  0  0  0  0  0  0  0  0  0  0  0
    3.0203    3.0995    0.0000 C   0  0  0  0  0  0  0  0  0  0  0  0
    4.3474    2.4005    0.0000 O   0  0  0  0  0  0  0  0  0  0  0  0
    5.6164    3.2003    0.0000 C   0  0  0  0  0  0  0  0  0  0  0  0
    2.9620    4.5983    0.0000 C   0  0  0  0  0  0  0  0  0  0  0  0
    4.2310    5.3982    0.0000 O   0  0  0  0  0  0  0  0  0  0  0  0
    5.5581    4.6992    0.0000 C   0  0  0  0  0  0  0  0  0  0  0  0
    1.6348    5.2973    0.0000 C   0  0  0  0  0  0  0  0  0  0  0  0
    0.3659    4.4975    0.0000 C   0  0  0  0  0  0  0  0  0  0  0  0
    0.4241    2.9986    0.0000 C   0  0  0  0  0  0  0  0  0  0  0  0
   -1.0621    3.2015    0.0000 C   0  0  0  0  0  0  0  0  0  0  0  0
   -2.5281    2.8839    0.0000 C   0  0  0  0  0  0  0  0  0  0  0  0
   -2.5661    3.8622    0.0000 N   0  0  0  0  0  0  0  0  0  0  0  0
   -4.0321    3.5446    0.0000 C   0  0  0  0  0  0  0  0  0  0  0  0
   -2.1082    5.2906    0.0000 C   0  0  0  0  0  0  0  0  0  0  0  0
   -0.6422    5.6082    0.0000 C   0  0  0  0  0  0  0  0  0  0  0  0
  1  2  1  0
  2  3  1  0
  3  4  2  0
  4  5  1  0
  5  6  2  0
  6  7  1  0
  7  8  2  0
  8  9  1  0
  9 10  1  0
 10 11  2  0
 11 12  1  0
 12 13  2  0
 13 14  1  0
 14 15  2  0
 13 16  1  0
 16 17  1  0
 17 18  1  0
 18 19  2  0
 19 20  1  0
 20 21  2  0
 21 22  1  0
 22 23  1  0
 21 24  1  0
 24 25  2  0
 25 26  1  0
 26 27  1  0
 27 28  1  0
 28 29  1  0
 20 30  1  0
 30 31  1  0
 31 32  2  0
 32 33  1  0
 33 34  1  0
 32 35  1  0
 35 36  1  0
 36 37  1  0
 35 38  2  0
 38 39  1  0
 39 40  2  0
 40 41  1  0
 41 42  1  0
 41 43  1  6
 43 44  1  0
 43 45  1  0
 45 46  1  0
  8  3  1  0
 15 10  1  0
 17 28  1  1
 40 31  1  0
 42  6  1  0
 25 18  1  0
 46 39  1  0
M  END
> <Identifier>
Drug_247

> <Carcinogen>
0

$$$$

     RDKit          2D

 14 15  0  0  0  0  0  0  0  0999 V2000
   -4.0128    0.2211    0.0000 C   0  0  0  0  0  0  0  0  0  0  0  0
   -2.8645   -0.7439    0.0000 C   0  0  0  0  0  0  0  0  0  0  0  0
   -3.1261   -2.2209    0.0000 O   0  0  0  0  0  0  0  0  0  0  0  0
   -1.4546   -0.2320    0.0000 C   0  0  0  0  0  0  0  0  0  0  0  0
   -0.3063   -1.1971    0.0000 C   0  0  0  0  0  0  0  0  0  0  0  0
    1.1037   -0.6851    0.0000 C   0  0  0  0  0  0  0  0  0  0  0  0
    2.2520   -1.6502    0.0000 C   0  0  0  0  0  0  0  0  0  0  0  0
    3.6619   -1.1383    0.0000 C   0  0  0  0  0  0  0  0  0  0  0  0
    3.9235    0.3387    0.0000 C   0  0  0  0  0  0  0  0  0  0  0  0
    2.7752    1.3038    0.0000 C   0  0  0  0  0  0  0  0  0  0  0  0
    1.3653    0.7919    0.0000 C   0  0  0  0  0  0  0  0  0  0  0  0
    0.2170    1.7569    0.0000 O   0  0  0  0  0  0  0  0  0  0  0  0
   -1.1930    1.2450    0.0000 C   0  0  0  0  0  0  0  0  0  0  0  0
   -2.3413    2.2101    0.0000 O   0  0  0  0  0  0  0  0  0  0  0  0
  1  2  1  0
  2  3  2  0
  2  4  1  0
  4  5  2  0
  5  6  1  0
  6  7  2  0
  7  8  1  0
  8  9  2  0
  9 10  1  0
 10 11  2  0
 11 12  1  0
 12 13  1  0
 13 14  2  0
 13  4  1  0
 11  6  1  0
M  END
> <Identifier>
Drug_248

> <Carcinogen>
0

$$$$

     RDKit          2D

 11 12  0  0  0  0  0  0  0  0999 V2000
   -2.2404   -0.5308    0.0000 C   0  0  0  0  0  0  0  0  0  0  0  0
   -0.7591   -0.2948    0.0000 N   0  0  0  0  0  0  0  0  0  0  0  0
    0.1859   -1.4596    0.0000 C   0  0  0  0  0  0  0  0  0  0  0  0
    1.6673   -1.2236    0.0000 C   0  0  0  0  0  0  0  0  0  0  0  0
    2.2035    0.1773    0.0000 C   0  0  0  0  0  0  0  0  0  0  0  0
    3.6848    0.4133    0.0000 O   0  0  0  0  0  0  0  0  0  0  0  0
    1.2584    1.3421    0.0000 C   0  0  0  0  0  0  0  0  0  0  0  0
   -0.2229    1.1061    0.0000 C   0  0  0  0  0  0  0  0  0  0  0  0
   -1.5588    0.4238    0.0000 C   0  0  0  0  0  0  0  0  0  0  0  0
   -2.8959    1.1036    0.0000 O   0  0  0  0  0  0  0  0  0  0  0  0
   -1.3227   -1.0575    0.0000 C   0  0  0  0  0  0  0  0  0  0  0  0
  1  2  1  0
  2  3  1  0
  3  4  1  6
  4  5  1  0
  5  6  2  0
  5  7  1  0
  8  7  1  6
  8  9  1  0
  9 10  1  1
  9 11  1  0
  8  2  1  0
 11  3  1  0
M  END
> <Identifier>
Drug_249

> <Carcinogen>
0

$$$$

     RDKit          2D

 29 33  0  0  0  0  0  0  0  0999 V2000
   -8.7175   -1.5844    0.0000 C   0  0  0  0  0  0  0  0  0  0  0  0
   -7.3107   -2.1049    0.0000 O   0  0  0  0  0  0  0  0  0  0  0  0
   -6.1565   -1.1468    0.0000 C   0  0  0  0  0  0  0  0  0  0  0  0
   -6.4091    0.3318    0.0000 C   0  0  0  0  0  0  0  0  0  0  0  0
   -5.2550    1.2898    0.0000 C   0  0  0  0  0  0  0  0  0  0  0  0
   -3.8482    0.7693    0.0000 C   0  0  0  0  0  0  0  0  0  0  0  0
   -2.5200    1.4665    0.0000 C   0  0  0  0  0  0  0  0  0  0  0  0
   -1.4466    0.4188    0.0000 C   0  0  0  0  0  0  0  0  0  0  0  0
   -2.1113   -0.9259    0.0000 N   0  0  0  0  0  0  0  0  0  0  0  0
   -3.5956   -0.7093    0.0000 C   0  0  0  0  0  0  0  0  0  0  0  0
   -4.7497   -1.6673    0.0000 C   0  0  0  0  0  0  0  0  0  0  0  0
   -0.0025    0.8245    0.0000 C   0  0  0  0  0  0  0  0  0  0  0  0
    1.0710   -0.2232    0.0000 C   0  0  0  0  0  0  0  0  0  0  0  0
    2.5150    0.1826    0.0000 C   0  0  0  0  0  0  0  0  0  0  0  0
    2.8856    1.6361    0.0000 C   0  0  0  0  0  0  0  0  0  0  0  0
    4.3297    2.0419    0.0000 C   0  0  0  0  0  0  0  0  0  0  0  0
    5.4032    0.9942    0.0000 C   0  0  0  0  0  0  0  0  0  0  0  0
    6.8472    1.4000    0.0000 O   0  0  0  0  0  0  0  0  0  0  0  0
    5.0325   -0.4593    0.0000 C   0  0  0  0  0  0  0  0  0  0  0  0
    6.1060   -1.5070    0.0000 O   0  0  0  0  0  0  0  0  0  0  0  0
    5.7354   -2.9605    0.0000 C   0  0  0  0  0  0  0  0  0  0  0  0
    3.5885   -0.8651    0.0000 C   0  0  0  0  0  0  0  0  0  0  0  0
    3.2179   -2.3186    0.0000 C   0  0  0  0  0  0  0  0  0  0  0  0
    1.7738   -2.7244    0.0000 O   0  0  0  0  0  0  0  0  0  0  0  0
    4.2913   -3.3663    0.0000 O   0  0  0  0  0  0  0  0  0  0  0  0
    1.8122    2.6838    0.0000 C   0  0  0  0  0  0  0  0  0  0  0  0
    0.3681    2.2780    0.0000 N   0  0  0  0  0  0  0  0  0  0  0  0
   -0.7053    3.3257    0.0000 C   0  0  0  0  0  0  0  0  0  0  0  0
   -2.1494    2.9200    0.0000 C   0  0  0  0  0  0  0  0  0  0  0  0
  1  2  1  0
  2  3  1  0
  3  4  2  0
  4  5  1  0
  5  6  2  0
  6  7  1  0
  7  8  2  0
  8  9  1  0
  9 10  1  0
 10 11  2  0
  8 12  1  0
 12 13  1  6
 14 13  1  1
 14 15  1  0
 15 16  1  1
 16 17  1  0
 17 18  1  1
 17 19  1  0
 19 20  1  6
 20 21  1  0
 19 22  1  0
 22 23  1  1
 23 24  2  0
 23 25  1  0
 15 26  1  0
 26 27  1  0
 27 28  1  0
 28 29  1  0
 11  3  1  0
 27 12  1  0
 10  6  1  0
 22 14  1  0
 29  7  1  0
M  END
> <Identifier>
Drug_250

> <Carcinogen>
0

$$$$

     RDKit          2D

 14 15  0  0  0  0  0  0  0  0999 V2000
   -3.9452   -1.9906    0.0000 C   0  0  0  0  0  0  0  0  0  0  0  0
   -3.5792   -0.5359    0.0000 O   0  0  0  0  0  0  0  0  0  0  0  0
   -2.1365   -0.1255    0.0000 C   0  0  0  0  0  0  0  0  0  0  0  0
   -1.0597   -1.1697    0.0000 C   0  0  0  0  0  0  0  0  0  0  0  0
    0.3831   -0.7592    0.0000 C   0  0  0  0  0  0  0  0  0  0  0  0
    1.4599   -1.8035    0.0000 C   0  0  0  0  0  0  0  0  0  0  0  0
    2.9027   -1.3930    0.0000 C   0  0  0  0  0  0  0  0  0  0  0  0
    3.2686    0.0617    0.0000 C   0  0  0  0  0  0  0  0  0  0  0  0
    4.7113    0.4721    0.0000 O   0  0  0  0  0  0  0  0  0  0  0  0
    2.1918    1.1059    0.0000 O   0  0  0  0  0  0  0  0  0  0  0  0
    0.7490    0.6954    0.0000 C   0  0  0  0  0  0  0  0  0  0  0  0
   -0.3278    1.7397    0.0000 C   0  0  0  0  0  0  0  0  0  0  0  0
   -1.7706    1.3292    0.0000 C   0  0  0  0  0  0  0  0  0  0  0  0
   -2.8474    2.3735    0.0000 O   0  0  0  0  0  0  0  0  0  0  0  0
  1  2  1  0
  2  3  1  0
  3  4  2  0
  4  5  1  0
  5  6  1  0
  6  7  2  0
  7  8  1  0
  8  9  2  0
  8 10  1  0
 10 11  1  0
 11 12  1  0
 12 13  2  0
 13 14  1  0
 13  3  1  0
 11  5  2  0
M  END
> <Identifier>
Drug_251

> <Carcinogen>
0

$$$$

     RDKit          2D

 32 36  0  0  0  0  0  0  0  0999 V2000
    2.6608   -3.2701    0.0000 C   0  0  0  0  0  0  0  0  0  0  0  0
    4.0535   -2.7131    0.0000 C   0  0  0  0  0  0  0  0  0  0  0  0
    5.2323   -3.6407    0.0000 C   0  0  0  0  0  0  0  0  0  0  0  0
    4.2675   -1.2284    0.0000 C   0  0  0  0  0  0  0  0  0  0  0  0
    5.5943   -0.5288    0.0000 C   0  0  0  0  0  0  0  0  0  0  0  0
    5.3390    0.9493    0.0000 C   0  0  0  0  0  0  0  0  0  0  0  0
    3.8544    1.1632    0.0000 C   0  0  0  0  0  0  0  0  0  0  0  0
    4.6537    2.4325    0.0000 C   0  0  0  0  0  0  0  0  0  0  0  0
    6.1526    2.3749    0.0000 O   0  0  0  0  0  0  0  0  0  0  0  0
    3.0199    2.4097    0.0000 C   0  0  0  0  0  0  0  0  0  0  0  0
    1.5232    2.3103    0.0000 C   0  0  0  0  0  0  0  0  0  0  0  0
    0.8610    0.9644    0.0000 C   0  0  0  0  0  0  0  0  0  0  0  0
    0.0265    2.2109    0.0000 C   0  0  0  0  0  0  0  0  0  0  0  0
    1.6954   -0.2821    0.0000 C   0  0  0  0  0  0  0  0  0  0  0  0
    1.0331   -1.6280    0.0000 C   0  0  0  0  0  0  0  0  0  0  0  0
   -0.4636   -1.7274    0.0000 C   0  0  0  0  0  0  0  0  0  0  0  0
   -1.2980   -0.4809    0.0000 C   0  0  0  0  0  0  0  0  0  0  0  0
   -2.7947   -0.5803    0.0000 C   0  0  0  0  0  0  0  0  0  0  0  0
   -1.9603   -1.8268    0.0000 C   0  0  0  0  0  0  0  0  0  0  0  0
   -3.4570   -1.9262    0.0000 C   0  0  0  0  0  0  0  0  0  0  0  0
   -4.9537   -2.0256    0.0000 C   0  0  0  0  0  0  0  0  0  0  0  0
   -5.7881   -0.7791    0.0000 C   0  0  0  0  0  0  0  0  0  0  0  0
   -7.2848   -0.8785    0.0000 O   0  0  0  0  0  0  0  0  0  0  0  0
   -5.1259    0.5668    0.0000 C   0  0  0  0  0  0  0  0  0  0  0  0
   -4.9639    2.0580    0.0000 C   0  0  0  0  0  0  0  0  0  0  0  0
   -6.5663    0.9853    0.0000 C   0  0  0  0  0  0  0  0  0  0  0  0
   -3.6291    0.6662    0.0000 C   0  0  0  0  0  0  0  0  0  0  0  0
   -2.9669    2.0121    0.0000 C   0  0  0  0  0  0  0  0  0  0  0  0
   -1.4702    2.1115    0.0000 C   0  0  0  0  0  0  0  0  0  0  0  0
   -0.6357    0.8650    0.0000 C   0  0  0  0  0  0  0  0  0  0  0  0
    0.1987   -0.3815    0.0000 C   0  0  0  0  0  0  0  0  0  0  0  0
    3.1921   -0.1827    0.0000 C   0  0  0  0  0  0  0  0  0  0  0  0
  1  2  2  0
  2  3  1  0
  4  2  1  1
  4  5  1  0
  5  6  1  0
  6  7  1  0
  7  8  1  6
  8  9  1  0
  7 10  1  0
 10 11  1  0
 11 12  1  0
 12 13  1  1
 12 14  1  0
 14 15  1  1
 15 16  1  0
 17 16  1  6
 17 18  1  0
 18 19  1  6
 18 20  1  0
 20 21  1  0
 21 22  1  0
 22 23  1  6
 22 24  1  0
 24 25  1  0
 24 26  1  0
 24 27  1  0
 27 28  1  6
 28 29  1  0
 29 30  1  0
 30 31  1  6
 14 32  1  0
 32  4  1  6
 32  7  1  0
 30 12  1  0
 30 17  1  0
 27 18  1  0
M  END
> <Identifier>
Drug_252

> <Carcinogen>
0

$$$$

     RDKit          2D

  7  7  0  0  0  0  0  0  0  0999 V2000
    2.5714    0.0000    0.0000 Cl  0  0  0  0  0  0  0  0  0  0  0  0
    1.0714   -0.0000    0.0000 C   0  0  0  0  0  0  0  0  0  0  0  0
    0.3214   -1.2990    0.0000 C   0  0  0  0  0  0  0  0  0  0  0  0
   -1.1786   -1.2990    0.0000 N   0  0  0  0  0  0  0  0  0  0  0  0
   -1.9286    0.0000    0.0000 C   0  0  0  0  0  0  0  0  0  0  0  0
   -1.1786    1.2990    0.0000 C   0  0  0  0  0  0  0  0  0  0  0  0
    0.3214    1.2990    0.0000 N   0  0  0  0  0  0  0  0  0  0  0  0
  1  2  1  0
  2  3  2  0
  3  4  1  0
  4  5  2  0
  5  6  1  0
  6  7  2  0
  7  2  1  0
M  END
> <Identifier>
Drug_253

> <Carcinogen>
0

$$$$

     RDKit          2D

 19 21  0  0  0  0  0  0  0  0999 V2000
    1.3568   -3.2007    0.0000 O   0  0  0  0  0  0  0  0  0  0  0  0
    0.8261   -1.7977    0.0000 C   0  0  0  0  0  0  0  0  0  0  0  0
   -0.6542   -1.5557    0.0000 C   0  0  0  0  0  0  0  0  0  0  0  0
   -1.1849   -0.1527    0.0000 C   0  0  0  0  0  0  0  0  0  0  0  0
   -2.6652    0.0892    0.0000 C   0  0  0  0  0  0  0  0  0  0  0  0
   -3.1959    1.4922    0.0000 C   0  0  0  0  0  0  0  0  0  0  0  0
   -4.6763    1.7341    0.0000 C   0  0  0  0  0  0  0  0  0  0  0  0
   -5.6260    0.5730    0.0000 C   0  0  0  0  0  0  0  0  0  0  0  0
   -5.0953   -0.8300    0.0000 C   0  0  0  0  0  0  0  0  0  0  0  0
   -3.6149   -1.0719    0.0000 C   0  0  0  0  0  0  0  0  0  0  0  0
   -0.2352    1.0083    0.0000 O   0  0  0  0  0  0  0  0  0  0  0  0
    1.2452    0.7664    0.0000 C   0  0  0  0  0  0  0  0  0  0  0  0
    2.1949    1.9275    0.0000 C   0  0  0  0  0  0  0  0  0  0  0  0
    3.6752    1.6855    0.0000 C   0  0  0  0  0  0  0  0  0  0  0  0
    4.6249    2.8466    0.0000 O   0  0  0  0  0  0  0  0  0  0  0  0
    4.2059    0.2825    0.0000 C   0  0  0  0  0  0  0  0  0  0  0  0
    3.2562   -0.8785    0.0000 C   0  0  0  0  0  0  0  0  0  0  0  0
    3.7869   -2.2815    0.0000 O   0  0  0  0  0  0  0  0  0  0  0  0
    1.7758   -0.6366    0.0000 C   0  0  0  0  0  0  0  0  0  0  0  0
  1  2  2  0
  2  3  1  0
  3  4  2  0
  4  5  1  0
  5  6  2  0
  6  7  1  0
  7  8  2  0
  8  9  1  0
  9 10  2  0
  4 11  1  0
 11 12  1  0
 12 13  2  0
 13 14  1  0
 14 15  1  0
 14 16  2  0
 16 17  1  0
 17 18  1  0
 17 19  2  0
 19  2  1  0
 10  5  1  0
 19 12  1  0
M  END
> <Identifier>
Drug_254

> <Carcinogen>
0

$$$$

     RDKit          2D

 21 23  0  0  0  0  0  0  0  0999 V2000
    1.8066    3.0899    0.0000 O   0  0  0  0  0  0  0  0  0  0  0  0
    1.2601    1.6930    0.0000 C   0  0  0  0  0  0  0  0  0  0  0  0
   -0.2229    1.4678    0.0000 C   0  0  0  0  0  0  0  0  0  0  0  0
   -1.1594    2.6395    0.0000 O   0  0  0  0  0  0  0  0  0  0  0  0
   -0.7694    0.0709    0.0000 C   0  0  0  0  0  0  0  0  0  0  0  0
   -2.2524   -0.1543    0.0000 C   0  0  0  0  0  0  0  0  0  0  0  0
   -3.1889    1.0174    0.0000 C   0  0  0  0  0  0  0  0  0  0  0  0
   -4.6719    0.7922    0.0000 C   0  0  0  0  0  0  0  0  0  0  0  0
   -5.2184   -0.6047    0.0000 C   0  0  0  0  0  0  0  0  0  0  0  0
   -6.7014   -0.8299    0.0000 O   0  0  0  0  0  0  0  0  0  0  0  0
   -4.2818   -1.7764    0.0000 C   0  0  0  0  0  0  0  0  0  0  0  0
   -2.7988   -1.5512    0.0000 C   0  0  0  0  0  0  0  0  0  0  0  0
    0.1672   -1.1008    0.0000 O   0  0  0  0  0  0  0  0  0  0  0  0
    1.6502   -0.8756    0.0000 C   0  0  0  0  0  0  0  0  0  0  0  0
    2.5867   -2.0474    0.0000 C   0  0  0  0  0  0  0  0  0  0  0  0
    4.0697   -1.8221    0.0000 C   0  0  0  0  0  0  0  0  0  0  0  0
    5.0062   -2.9939    0.0000 O   0  0  0  0  0  0  0  0  0  0  0  0
    4.6162   -0.4252    0.0000 C   0  0  0  0  0  0  0  0  0  0  0  0
    3.6796    0.7465    0.0000 C   0  0  0  0  0  0  0  0  0  0  0  0
    4.2261    2.1434    0.0000 O   0  0  0  0  0  0  0  0  0  0  0  0
    2.1966    0.5213    0.0000 C   0  0  0  0  0  0  0  0  0  0  0  0
  1  2  2  0
  2  3  1  0
  3  4  1  0
  3  5  2  0
  5  6  1  0
  6  7  2  0
  7  8  1  0
  8  9  2  0
  9 10  1  0
  9 11  1  0
 11 12  2  0
  5 13  1  0
 13 14  1  0
 14 15  2  0
 15 16  1  0
 16 17  1  0
 16 18  2  0
 18 19  1  0
 19 20  1  0
 19 21  2  0
 21  2  1  0
 12  6  1  0
 21 14  1  0
M  END
> <Identifier>
Drug_255

> <Carcinogen>
0

$$$$

     RDKit          2D

 10 11  0  0  0  0  0  0  0  0999 V2000
   -0.7825   -0.2234    0.0000 C   0  0  0  0  0  0  0  0  0  0  0  0
   -0.0130   -0.0152    0.0000 N   0  0  0  0  0  0  0  0  0  0  0  0
    0.8926   -1.2110    0.0000 C   0  0  0  0  0  0  0  0  0  0  0  0
    2.3097   -0.7192    0.0000 C   0  0  0  0  0  0  0  0  0  0  0  0
    2.2799    0.7805    0.0000 C   0  0  0  0  0  0  0  0  0  0  0  0
    0.8444    1.2156    0.0000 C   0  0  0  0  0  0  0  0  0  0  0  0
   -0.6587    1.3568    0.0000 C   0  0  0  0  0  0  0  0  0  0  0  0
   -1.3828    0.0432    0.0000 C   0  0  0  0  0  0  0  0  0  0  0  0
   -2.8825    0.0134    0.0000 O   0  0  0  0  0  0  0  0  0  0  0  0
   -0.6071   -1.2407    0.0000 C   0  0  0  0  0  0  0  0  0  0  0  0
  1  2  1  0
  2  3  1  0
  3  4  1  0
  4  5  1  0
  5  6  1  0
  6  7  1  0
  7  8  1  0
  8  9  1  0
  8 10  1  0
  6  2  1  0
 10  3  1  0
M  END
> <Identifier>
Drug_256

> <Carcinogen>
0

$$$$

     RDKit          2D

 13 13  0  0  0  0  0  0  0  0999 V2000
   -4.2741   -1.4221    0.0000 O   0  0  0  0  0  0  0  0  0  0  0  0
   -3.9076    0.0325    0.0000 C   0  0  0  0  0  0  0  0  0  0  0  0
   -4.9841    1.0771    0.0000 O   0  0  0  0  0  0  0  0  0  0  0  0
   -2.4647    0.4424    0.0000 C   0  0  0  0  0  0  0  0  0  0  0  0
   -1.3883   -0.6022    0.0000 C   0  0  0  0  0  0  0  0  0  0  0  0
    0.0546   -0.1922    0.0000 C   0  0  0  0  0  0  0  0  0  0  0  0
    0.4211    1.2623    0.0000 C   0  0  0  0  0  0  0  0  0  0  0  0
    1.8639    1.6722    0.0000 C   0  0  0  0  0  0  0  0  0  0  0  0
    2.9404    0.6276    0.0000 C   0  0  0  0  0  0  0  0  0  0  0  0
    4.3833    1.0376    0.0000 O   0  0  0  0  0  0  0  0  0  0  0  0
    2.5740   -0.8269    0.0000 C   0  0  0  0  0  0  0  0  0  0  0  0
    3.6504   -1.8715    0.0000 O   0  0  0  0  0  0  0  0  0  0  0  0
    1.1311   -1.2369    0.0000 C   0  0  0  0  0  0  0  0  0  0  0  0
  1  2  2  0
  2  3  1  0
  2  4  1  0
  4  5  2  3
  5  6  1  0
  6  7  2  0
  7  8  1  0
  8  9  2  0
  9 10  1  0
  9 11  1  0
 11 12  1  0
 11 13  2  0
 13  6  1  0
M  END
> <Identifier>
Drug_257

> <Carcinogen>
0

$$$$

     RDKit          2D

 13 14  0  0  0  0  0  0  0  0999 V2000
   -4.3187   -0.9380    0.0000 O   0  0  0  0  0  0  0  0  0  0  0  0
   -2.9483   -0.3280    0.0000 C   0  0  0  0  0  0  0  0  0  0  0  0
   -2.7914    1.1638    0.0000 C   0  0  0  0  0  0  0  0  0  0  0  0
   -1.4211    1.7738    0.0000 C   0  0  0  0  0  0  0  0  0  0  0  0
   -0.2076    0.8920    0.0000 C   0  0  0  0  0  0  0  0  0  0  0  0
    1.1627    1.5020    0.0000 C   0  0  0  0  0  0  0  0  0  0  0  0
    2.3762    0.6202    0.0000 C   0  0  0  0  0  0  0  0  0  0  0  0
    3.7466    1.2302    0.0000 O   0  0  0  0  0  0  0  0  0  0  0  0
    2.2193   -0.8715    0.0000 C   0  0  0  0  0  0  0  0  0  0  0  0
    3.4328   -1.7533    0.0000 O   0  0  0  0  0  0  0  0  0  0  0  0
    0.8489   -1.4815    0.0000 C   0  0  0  0  0  0  0  0  0  0  0  0
   -0.3645   -0.5998    0.0000 C   0  0  0  0  0  0  0  0  0  0  0  0
   -1.7349   -1.2098    0.0000 O   0  0  0  0  0  0  0  0  0  0  0  0
  1  2  2  0
  2  3  1  0
  3  4  2  0
  4  5  1  0
  5  6  2  0
  6  7  1  0
  7  8  1  0
  7  9  2  0
  9 10  1  0
  9 11  1  0
 11 12  2  0
 12 13  1  0
 13  2  1  0
 12  5  1  0
M  END
> <Identifier>
Drug_258

> <Carcinogen>
0

$$$$

     RDKit          2D

 23 24  0  0  0  0  0  0  0  0999 V2000
   -7.0156    2.4413    0.0000 C   0  0  0  0  0  0  0  0  0  0  0  0
   -5.6451    1.8316    0.0000 C   0  0  0  0  0  0  0  0  0  0  0  0
   -4.4318    2.7136    0.0000 C   0  0  0  0  0  0  0  0  0  0  0  0
   -5.4879    0.3399    0.0000 C   0  0  0  0  0  0  0  0  0  0  0  0
   -4.1174   -0.2699    0.0000 C   0  0  0  0  0  0  0  0  0  0  0  0
   -3.9602   -1.7616    0.0000 C   0  0  0  0  0  0  0  0  0  0  0  0
   -2.5898   -2.3714    0.0000 C   0  0  0  0  0  0  0  0  0  0  0  0
   -2.4326   -3.8631    0.0000 C   0  0  0  0  0  0  0  0  0  0  0  0
   -1.3765   -1.4894    0.0000 C   0  0  0  0  0  0  0  0  0  0  0  0
   -0.0060   -2.0991    0.0000 C   0  0  0  0  0  0  0  0  0  0  0  0
    1.2073   -1.2171    0.0000 C   0  0  0  0  0  0  0  0  0  0  0  0
    2.5778   -1.8269    0.0000 C   0  0  0  0  0  0  0  0  0  0  0  0
    2.7350   -3.3186    0.0000 C   0  0  0  0  0  0  0  0  0  0  0  0
    3.7911   -0.9449    0.0000 C   0  0  0  0  0  0  0  0  0  0  0  0
    5.1616   -1.5546    0.0000 O   0  0  0  0  0  0  0  0  0  0  0  0
    3.6339    0.5468    0.0000 C   0  0  0  0  0  0  0  0  0  0  0  0
    4.8472    1.4288    0.0000 C   0  0  0  0  0  0  0  0  0  0  0  0
    4.6900    2.9206    0.0000 C   0  0  0  0  0  0  0  0  0  0  0  0
    3.3195    3.5303    0.0000 C   0  0  0  0  0  0  0  0  0  0  0  0
    2.1062    2.6483    0.0000 C   0  0  0  0  0  0  0  0  0  0  0  0
    2.2634    1.1566    0.0000 C   0  0  0  0  0  0  0  0  0  0  0  0
    1.0501    0.2746    0.0000 C   0  0  0  0  0  0  0  0  0  0  0  0
   -0.3204    0.8843    0.0000 O   0  0  0  0  0  0  0  0  0  0  0  0
  1  2  1  0
  2  3  1  0
  2  4  2  0
  4  5  1  0
  5  6  1  0
  6  7  1  0
  7  8  1  0
  7  9  2  0
  9 10  1  0
 10 11  1  0
 11 12  2  0
 12 13  1  0
 12 14  1  0
 14 15  2  0
 14 16  1  0
 16 17  2  0
 17 18  1  0
 18 19  2  0
 19 20  1  0
 20 21  2  0
 21 22  1  0
 22 23  2  0
 22 11  1  0
 21 16  1  0
M  END
> <Identifier>
Drug_259

> <Carcinogen>
0

$$$$

     RDKit          2D

 32 37  0  0  0  0  0  0  0  0999 V2000
    1.6753   -1.7814    0.0000 C   0  0  0  0  0  0  0  0  0  0  0  0
    0.1958   -2.0285    0.0000 C   0  0  0  0  0  0  0  0  0  0  0  0
   -2.0839    0.1657    0.0000 N   0  0  0  0  0  0  0  0  0  0  0  0
   -2.2113    0.2603    0.0000 C   0  0  0  0  0  0  0  0  0  0  0  0
   -4.0258   -0.0996    0.0000 C   0  0  0  0  0  0  0  0  0  0  0  0
   -5.2447    0.7746    0.0000 C   0  0  0  0  0  0  0  0  0  0  0  0
   -6.6112    0.1560    0.0000 O   0  0  0  0  0  0  0  0  0  0  0  0
   -7.8302    1.0301    0.0000 C   0  0  0  0  0  0  0  0  0  0  0  0
   -4.1733   -1.5923    0.0000 C   0  0  0  0  0  0  0  0  0  0  0  0
   -2.9544   -2.4664    0.0000 C   0  0  0  0  0  0  0  0  0  0  0  0
   -1.5878   -1.8479    0.0000 C   0  0  0  0  0  0  0  0  0  0  0  0
   -0.3689   -2.7220    0.0000 O   0  0  0  0  0  0  0  0  0  0  0  0
   -1.4403   -0.3551    0.0000 C   0  0  0  0  0  0  0  0  0  0  0  0
   -0.2323    0.5340    0.0000 C   0  0  0  0  0  0  0  0  0  0  0  0
   -0.7046    1.9577    0.0000 C   0  0  0  0  0  0  0  0  0  0  0  0
   -2.2046    1.9484    0.0000 C   0  0  0  0  0  0  0  0  0  0  0  0
   -2.6593    0.5190    0.0000 C   0  0  0  0  0  0  0  0  0  0  0  0
    0.7248    1.5030    0.0000 C   0  0  0  0  0  0  0  0  0  0  0  0
    0.4039    2.9683    0.0000 O   0  0  0  0  0  0  0  0  0  0  0  0
    1.8333    2.5136    0.0000 C   0  0  0  0  0  0  0  0  0  0  0  0
    3.2627    2.0589    0.0000 C   0  0  0  0  0  0  0  0  0  0  0  0
    4.3712    3.0695    0.0000 O   0  0  0  0  0  0  0  0  0  0  0  0
    5.8006    2.6148    0.0000 C   0  0  0  0  0  0  0  0  0  0  0  0
    3.5837    0.5937    0.0000 C   0  0  0  0  0  0  0  0  0  0  0  0
    2.1207    0.9248    0.0000 C   0  0  0  0  0  0  0  0  0  0  0  0
   -0.0627   -0.9728    0.0000 C   0  0  0  0  0  0  0  0  0  0  0  0
    1.0458    0.0378    0.0000 C   0  0  0  0  0  0  0  0  0  0  0  0
    2.4752   -0.4169    0.0000 C   0  0  0  0  0  0  0  0  0  0  0  0
    2.7961   -1.8822    0.0000 O   0  0  0  0  0  0  0  0  0  0  0  0
    4.2256   -2.3368    0.0000 C   0  0  0  0  0  0  0  0  0  0  0  0
    4.5465   -3.8021    0.0000 C   0  0  0  0  0  0  0  0  0  0  0  0
    5.3341   -1.3263    0.0000 O   0  0  0  0  0  0  0  0  0  0  0  0
  1  2  1  0
  2  3  1  0
  3  4  1  0
  4  5  1  0
  5  6  1  1
  6  7  1  0
  7  8  1  0
  5  9  1  0
  9 10  1  0
 10 11  1  0
 11 12  1  1
 11 13  1  0
 13 14  1  1
 14 15  1  0
 15 16  1  6
 17 16  1  1
 15 18  1  0
 18 19  1  6
 18 20  1  0
 20 21  1  0
 21 22  1  6
 22 23  1  0
 21 24  1  0
 24 25  1  1
 26 25  1  1
 27 26  1  1
 27 28  1  0
 28 29  1  6
 29 30  1  0
 30 31  1  0
 30 32  2  0
 14  3  1  0
 27 18  1  0
 17  5  1  0
 28 24  1  0
 17 13  1  0
 26 13  1  0
M  END
> <Identifier>
Drug_260

> <Carcinogen>
0

$$$$

     RDKit          2D

 20 22  0  0  0  0  0  0  0  0999 V2000
    2.4706    3.2878    0.0000 C   0  0  0  0  0  0  0  0  0  0  0  0
    1.1678    2.5442    0.0000 O   0  0  0  0  0  0  0  0  0  0  0  0
    1.1604    1.0443    0.0000 C   0  0  0  0  0  0  0  0  0  0  0  0
   -0.1423    0.3007    0.0000 C   0  0  0  0  0  0  0  0  0  0  0  0
   -0.1497   -1.1993    0.0000 C   0  0  0  0  0  0  0  0  0  0  0  0
    1.1456   -1.9557    0.0000 N   0  0  0  0  0  0  0  0  0  0  0  0
    2.4483   -1.2121    0.0000 C   0  0  0  0  0  0  0  0  0  0  0  0
    3.7436   -1.9686    0.0000 C   0  0  0  0  0  0  0  0  0  0  0  0
    5.0463   -1.2250    0.0000 C   0  0  0  0  0  0  0  0  0  0  0  0
    5.0538    0.2750    0.0000 C   0  0  0  0  0  0  0  0  0  0  0  0
    3.7585    1.0314    0.0000 C   0  0  0  0  0  0  0  0  0  0  0  0
    2.4557    0.2878    0.0000 C   0  0  0  0  0  0  0  0  0  0  0  0
   -1.5786   -1.6557    0.0000 O   0  0  0  0  0  0  0  0  0  0  0  0
   -2.4543   -0.4379    0.0000 C   0  0  0  0  0  0  0  0  0  0  0  0
   -3.9542   -0.4304    0.0000 C   0  0  0  0  0  0  0  0  0  0  0  0
   -3.9617   -1.9304    0.0000 C   0  0  0  0  0  0  0  0  0  0  0  0
   -5.4542   -0.4230    0.0000 O   0  0  0  0  0  0  0  0  0  0  0  0
   -3.9468    1.0696    0.0000 C   0  0  0  0  0  0  0  0  0  0  0  0
   -5.2421    1.8260    0.0000 O   0  0  0  0  0  0  0  0  0  0  0  0
   -1.5666    0.7713    0.0000 C   0  0  0  0  0  0  0  0  0  0  0  0
  1  2  1  0
  2  3  1  0
  3  4  2  0
  4  5  1  0
  5  6  2  0
  6  7  1  0
  7  8  2  0
  8  9  1  0
  9 10  2  0
 10 11  1  0
 11 12  2  0
  5 13  1  0
 13 14  1  0
 14 15  1  0
 15 16  1  0
 15 17  1  0
 15 18  1  0
 18 19  1  0
 14 20  1  0
 12  3  1  0
 20  4  1  0
 12  7  1  0
M  END
> <Identifier>
Drug_261

> <Carcinogen>
0

$$$$

     RDKit          2D

 18 20  0  0  0  0  0  0  0  0999 V2000
    0.3686   -3.3725    0.0000 C   0  0  0  0  0  0  0  0  0  0  0  0
    1.1848   -2.1139    0.0000 C   0  0  0  0  0  0  0  0  0  0  0  0
    2.6827   -2.0345    0.0000 C   0  0  0  0  0  0  0  0  0  0  0  0
    3.0700   -0.5854    0.0000 C   0  0  0  0  0  0  0  0  0  0  0  0
    4.4701   -0.0469    0.0000 O   0  0  0  0  0  0  0  0  0  0  0  0
    1.8115    0.2308    0.0000 C   0  0  0  0  0  0  0  0  0  0  0  0
    1.7993    1.7308    0.0000 C   0  0  0  0  0  0  0  0  0  0  0  0
    3.1455    2.3925    0.0000 C   0  0  0  0  0  0  0  0  0  0  0  0
    0.6191    2.6565    0.0000 C   0  0  0  0  0  0  0  0  0  0  0  0
   -0.8406    2.3108    0.0000 C   0  0  0  0  0  0  0  0  0  0  0  0
   -1.4804    0.9541    0.0000 C   0  0  0  0  0  0  0  0  0  0  0  0
   -2.9652    0.7407    0.0000 C   0  0  0  0  0  0  0  0  0  0  0  0
   -4.0105    1.8165    0.0000 C   0  0  0  0  0  0  0  0  0  0  0  0
   -3.2210   -0.7373    0.0000 C   0  0  0  0  0  0  0  0  0  0  0  0
   -4.5672   -1.3990    0.0000 O   0  0  0  0  0  0  0  0  0  0  0  0
   -1.8944   -1.4373    0.0000 O   0  0  0  0  0  0  0  0  0  0  0  0
   -0.8187   -0.3920    0.0000 C   0  0  0  0  0  0  0  0  0  0  0  0
    0.6464   -0.7139    0.0000 C   0  0  0  0  0  0  0  0  0  0  0  0
  1  2  1  0
  2  3  2  0
  3  4  1  0
  4  5  2  0
  4  6  1  0
  6  7  2  0
  7  8  1  0
  7  9  1  0
  9 10  1  0
 11 10  1  6
 11 12  1  0
 12 13  1  1
 12 14  1  0
 14 15  2  0
 14 16  1  0
 17 16  1  1
 17 18  1  0
 18  2  1  6
 18  6  1  0
 17 11  1  0
M  END
> <Identifier>
Drug_262

> <Carcinogen>
0

$$$$

     RDKit          2D

 22 25  0  0  0  0  0  0  0  0999 V2000
   -6.3853   -0.3534    0.0000 N   0  0  0  0  0  0  0  0  0  0  0  0
   -5.0306    0.2908    0.0000 C   0  0  0  0  0  0  0  0  0  0  0  0
   -4.9112    1.7860    0.0000 N   0  0  0  0  0  0  0  0  0  0  0  0
   -3.5566    2.4302    0.0000 C   0  0  0  0  0  0  0  0  0  0  0  0
   -2.3214    1.5792    0.0000 N   0  0  0  0  0  0  0  0  0  0  0  0
   -2.4408    0.0840    0.0000 C   0  0  0  0  0  0  0  0  0  0  0  0
   -3.7954   -0.5602    0.0000 C   0  0  0  0  0  0  0  0  0  0  0  0
   -3.6014   -2.0476    0.0000 N   0  0  0  0  0  0  0  0  0  0  0  0
   -2.1268   -2.3227    0.0000 C   0  0  0  0  0  0  0  0  0  0  0  0
   -1.4095   -1.0053    0.0000 N   0  0  0  0  0  0  0  0  0  0  0  0
    0.0779   -0.8113    0.0000 C   0  0  0  0  0  0  0  0  0  0  0  0
    1.1091   -1.9005    0.0000 O   0  0  0  0  0  0  0  0  0  0  0  0
    2.4638   -1.2563    0.0000 C   0  0  0  0  0  0  0  0  0  0  0  0
    3.8489   -1.8320    0.0000 C   0  0  0  0  0  0  0  0  0  0  0  0
    5.0400   -0.9202    0.0000 O   0  0  0  0  0  0  0  0  0  0  0  0
    4.8459    0.5672    0.0000 P   0  0  0  0  0  0  0  0  0  0  0  0
    5.1723    2.0313    0.0000 O   0  0  0  0  0  0  0  0  0  0  0  0
    6.3444    0.5000    0.0000 O   0  0  0  0  0  0  0  0  0  0  0  0
    3.4608    1.1428    0.0000 O   0  0  0  0  0  0  0  0  0  0  0  0
    2.2697    0.2311    0.0000 C   0  0  0  0  0  0  0  0  0  0  0  0
    0.7951    0.5061    0.0000 C   0  0  0  0  0  0  0  0  0  0  0  0
    0.1509    1.8608    0.0000 O   0  0  0  0  0  0  0  0  0  0  0  0
  1  2  1  0
  2  3  2  0
  3  4  1  0
  4  5  2  0
  5  6  1  0
  6  7  2  0
  7  8  1  0
  8  9  2  0
  9 10  1  0
 11 10  1  1
 11 12  1  0
 12 13  1  0
 13 14  1  1
 14 15  1  0
 15 16  1  0
 16 17  2  0
 16 18  1  0
 16 19  1  0
 19 20  1  0
 20 21  1  0
 21 22  1  0
  7  2  1  0
 21 11  1  0
 10  6  1  0
 20 13  1  0
M  END
> <Identifier>
Drug_263

> <Carcinogen>
0

$$$$

     RDKit          2D

 16 18  0  0  0  0  0  0  0  0999 V2000
   -4.2925    0.7270    0.0000 C   0  0  0  0  0  0  0  0  0  0  0  0
   -3.0690   -0.1408    0.0000 N   0  0  0  0  0  0  0  0  0  0  0  0
   -3.0519   -1.6407    0.0000 C   0  0  0  0  0  0  0  0  0  0  0  0
   -1.6201   -2.0879    0.0000 C   0  0  0  0  0  0  0  0  0  0  0  0
   -0.7523   -0.8645    0.0000 C   0  0  0  0  0  0  0  0  0  0  0  0
    0.1431   -2.0679    0.0000 C   0  0  0  0  0  0  0  0  0  0  0  0
    0.6689   -0.3847    0.0000 C   0  0  0  0  0  0  0  0  0  0  0  0
    1.9764   -1.1199    0.0000 C   0  0  0  0  0  0  0  0  0  0  0  0
    3.2668   -0.3552    0.0000 C   0  0  0  0  0  0  0  0  0  0  0  0
    4.5743   -1.0903    0.0000 O   0  0  0  0  0  0  0  0  0  0  0  0
    3.2497    1.1447    0.0000 C   0  0  0  0  0  0  0  0  0  0  0  0
    1.9422    1.8799    0.0000 C   0  0  0  0  0  0  0  0  0  0  0  0
    0.6518    1.1152    0.0000 C   0  0  0  0  0  0  0  0  0  0  0  0
   -0.7800    1.5624    0.0000 N   0  0  0  0  0  0  0  0  0  0  0  0
   -1.2597    2.9836    0.0000 C   0  0  0  0  0  0  0  0  0  0  0  0
   -1.6478    0.3389    0.0000 C   0  0  0  0  0  0  0  0  0  0  0  0
  1  2  1  0
  2  3  1  0
  3  4  1  0
  4  5  1  0
  5  6  1  1
  5  7  1  0
  7  8  2  0
  8  9  1  0
  9 10  1  0
  9 11  2  0
 11 12  1  0
 12 13  2  0
 13 14  1  0
 14 15  1  0
 16 14  1  1
 16  2  1  0
 16  5  1  0
 13  7  1  0
M  END
> <Identifier>
Drug_264

> <Carcinogen>
0

$$$$

     RDKit          2D

 15 15  0  0  0  0  0  0  0  0999 V2000
   -5.8757   -0.2142    0.0000 C   0  0  0  0  0  0  0  0  0  0  0  0
   -4.4928    0.3668    0.0000 C   0  0  0  0  0  0  0  0  0  0  0  0
   -4.3045    1.8550    0.0000 C   0  0  0  0  0  0  0  0  0  0  0  0
   -3.2982   -0.5403    0.0000 N   0  0  0  0  0  0  0  0  0  0  0  0
   -1.9153    0.0407    0.0000 C   0  0  0  0  0  0  0  0  0  0  0  0
   -0.7207   -0.8664    0.0000 C   0  0  0  0  0  0  0  0  0  0  0  0
   -0.9090   -2.3545    0.0000 O   0  0  0  0  0  0  0  0  0  0  0  0
    0.6622   -0.2854    0.0000 C   0  0  0  0  0  0  0  0  0  0  0  0
    0.8505    1.2028    0.0000 C   0  0  0  0  0  0  0  0  0  0  0  0
    2.2334    1.7838    0.0000 C   0  0  0  0  0  0  0  0  0  0  0  0
    3.4280    0.8766    0.0000 C   0  0  0  0  0  0  0  0  0  0  0  0
    4.8110    1.4577    0.0000 O   0  0  0  0  0  0  0  0  0  0  0  0
    3.2398   -0.6115    0.0000 C   0  0  0  0  0  0  0  0  0  0  0  0
    4.4344   -1.5186    0.0000 O   0  0  0  0  0  0  0  0  0  0  0  0
    1.8569   -1.1925    0.0000 C   0  0  0  0  0  0  0  0  0  0  0  0
  1  2  1  0
  2  3  1  0
  2  4  1  0
  4  5  1  0
  5  6  1  0
  6  7  1  6
  6  8  1  0
  8  9  2  0
  9 10  1  0
 10 11  2  0
 11 12  1  0
 11 13  1  0
 13 14  1  0
 13 15  2  0
 15  8  1  0
M  END
> <Identifier>
Drug_265

> <Carcinogen>
0

$$$$

     RDKit          2D

 11 11  0  0  0  0  0  0  0  0999 V2000
    0.1818   -2.3588    0.0000 N   0  0  0  0  0  0  0  0  0  0  0  0
   -0.5931   -1.0745    0.0000 C   0  0  0  0  0  0  0  0  0  0  0  0
   -2.0928   -1.1033    0.0000 C   0  0  0  0  0  0  0  0  0  0  0  0
   -2.8676    0.1811    0.0000 C   0  0  0  0  0  0  0  0  0  0  0  0
   -2.1428    1.4943    0.0000 C   0  0  0  0  0  0  0  0  0  0  0  0
   -0.6431    1.5231    0.0000 C   0  0  0  0  0  0  0  0  0  0  0  0
    0.1318    0.2388    0.0000 C   0  0  0  0  0  0  0  0  0  0  0  0
    1.6315    0.2676    0.0000 S   0  0  0  0  0  0  0  0  0  0  0  0
    3.1312    0.2965    0.0000 N   0  0  0  0  0  0  0  0  0  0  0  0
    1.6027    1.7673    0.0000 O   0  0  0  0  0  0  0  0  0  0  0  0
    1.6604   -1.2321    0.0000 O   0  0  0  0  0  0  0  0  0  0  0  0
  1  2  1  0
  2  3  2  0
  3  4  1  0
  4  5  2  0
  5  6  1  0
  6  7  2  0
  7  8  1  0
  8  9  1  0
  8 10  2  0
  8 11  2  0
  7  2  1  0
M  END
> <Identifier>
Drug_266

> <Carcinogen>
0

$$$$

     RDKit          2D

 22 25  0  0  0  0  0  0  0  0999 V2000
   -3.6299    1.5044    0.0000 C   0  0  0  0  0  0  0  0  0  0  0  0
   -2.7860    0.2642    0.0000 C   0  0  0  0  0  0  0  0  0  0  0  0
   -1.9963    1.5396    0.0000 C   0  0  0  0  0  0  0  0  0  0  0  0
   -0.4970    1.4934    0.0000 C   0  0  0  0  0  0  0  0  0  0  0  0
    0.2926    2.7687    0.0000 O   0  0  0  0  0  0  0  0  0  0  0  0
    0.2126    0.1718    0.0000 C   0  0  0  0  0  0  0  0  0  0  0  0
   -0.5771   -1.1035    0.0000 C   0  0  0  0  0  0  0  0  0  0  0  0
    0.1326   -2.4250    0.0000 C   0  0  0  0  0  0  0  0  0  0  0  0
    1.6319   -2.4712    0.0000 C   0  0  0  0  0  0  0  0  0  0  0  0
    2.4215   -1.1959    0.0000 C   0  0  0  0  0  0  0  0  0  0  0  0
    3.9208   -1.2421    0.0000 C   0  0  0  0  0  0  0  0  0  0  0  0
    4.7105    0.0333    0.0000 C   0  0  0  0  0  0  0  0  0  0  0  0
    6.2098   -0.0129    0.0000 O   0  0  0  0  0  0  0  0  0  0  0  0
    4.0008    1.3548    0.0000 C   0  0  0  0  0  0  0  0  0  0  0  0
    2.5015    1.4010    0.0000 C   0  0  0  0  0  0  0  0  0  0  0  0
    1.7119    0.1256    0.0000 C   0  0  0  0  0  0  0  0  0  0  0  0
    1.0023    1.4472    0.0000 C   0  0  0  0  0  0  0  0  0  0  0  0
   -2.0763   -1.0573    0.0000 C   0  0  0  0  0  0  0  0  0  0  0  0
   -3.1139   -2.1405    0.0000 C   0  0  0  0  0  0  0  0  0  0  0  0
   -4.4648   -1.4885    0.0000 C   0  0  0  0  0  0  0  0  0  0  0  0
   -4.2621   -0.0023    0.0000 C   0  0  0  0  0  0  0  0  0  0  0  0
   -5.3454    1.0353    0.0000 O   0  0  0  0  0  0  0  0  0  0  0  0
  2  1  1  6
  2  3  1  0
  3  4  1  0
  4  5  2  0
  6  4  1  6
  6  7  1  0
  7  8  1  1
  8  9  1  0
  9 10  1  0
 10 11  2  0
 11 12  1  0
 12 13  2  0
 12 14  1  0
 14 15  1  0
 15 16  1  0
 16 17  1  6
  7 18  1  0
 18 19  1  6
 19 20  1  0
 20 21  1  0
 21 22  2  0
 18  2  1  0
 21  2  1  0
 16  6  1  0
 16 10  1  0
M  END
> <Identifier>
Drug_267

> <Carcinogen>
0

$$$$

     RDKit          2D

 24 27  0  0  0  0  0  0  0  0999 V2000
   -7.6780    0.3315    0.0000 C   0  0  0  0  0  0  0  0  0  0  0  0
   -6.1915    0.5319    0.0000 C   0  0  0  0  0  0  0  0  0  0  0  0
   -5.6217    1.9195    0.0000 O   0  0  0  0  0  0  0  0  0  0  0  0
   -5.2747   -0.6553    0.0000 O   0  0  0  0  0  0  0  0  0  0  0  0
   -3.7881   -0.4549    0.0000 C   0  0  0  0  0  0  0  0  0  0  0  0
   -3.2184    0.9327    0.0000 C   0  0  0  0  0  0  0  0  0  0  0  0
   -1.7318    1.1330    0.0000 C   0  0  0  0  0  0  0  0  0  0  0  0
   -0.8150   -0.0542    0.0000 C   0  0  0  0  0  0  0  0  0  0  0  0
   -0.2453    1.3334    0.0000 C   0  0  0  0  0  0  0  0  0  0  0  0
   -1.3848   -1.4417    0.0000 C   0  0  0  0  0  0  0  0  0  0  0  0
   -0.4679   -2.6289    0.0000 C   0  0  0  0  0  0  0  0  0  0  0  0
    1.0186   -2.4286    0.0000 C   0  0  0  0  0  0  0  0  0  0  0  0
    1.5884   -1.0410    0.0000 C   0  0  0  0  0  0  0  0  0  0  0  0
    3.0749   -0.8406    0.0000 C   0  0  0  0  0  0  0  0  0  0  0  0
    4.2185   -1.8112    0.0000 C   0  0  0  0  0  0  0  0  0  0  0  0
    5.4951   -1.0235    0.0000 C   0  0  0  0  0  0  0  0  0  0  0  0
    5.1404    0.4339    0.0000 C   0  0  0  0  0  0  0  0  0  0  0  0
    6.1110    1.5775    0.0000 O   0  0  0  0  0  0  0  0  0  0  0  0
    3.6447    0.5470    0.0000 C   0  0  0  0  0  0  0  0  0  0  0  0
    4.3563    1.8674    0.0000 C   0  0  0  0  0  0  0  0  0  0  0  0
    2.7278    1.7342    0.0000 C   0  0  0  0  0  0  0  0  0  0  0  0
    1.2413    1.5338    0.0000 C   0  0  0  0  0  0  0  0  0  0  0  0
    0.6715    0.1462    0.0000 C   0  0  0  0  0  0  0  0  0  0  0  0
   -2.8713   -1.6421    0.0000 C   0  0  0  0  0  0  0  0  0  0  0  0
  1  2  1  0
  2  3  2  0
  2  4  1  0
  5  4  1  1
  5  6  1  0
  6  7  1  0
  7  8  1  0
  8  9  1  1
  8 10  1  0
 10 11  2  0
 11 12  1  0
 13 12  1  6
 13 14  1  0
 14 15  1  1
 15 16  1  0
 16 17  1  0
 17 18  2  0
 17 19  1  0
 19 20  1  1
 19 21  1  0
 21 22  1  0
 23 22  1  1
 10 24  1  0
 24  5  1  0
 23  8  1  0
 23 13  1  0
 19 14  1  0
M  END
> <Identifier>
Drug_268

> <Carcinogen>
0

$$$$

     RDKit          2D

 28 32  0  0  0  0  0  0  0  0999 V2000
    2.0249   -1.5699    0.0000 C   0  0  0  0  0  0  0  0  0  0  0  0
    3.0207   -0.4481    0.0000 C   0  0  0  0  0  0  0  0  0  0  0  0
    3.4943   -1.8714    0.0000 C   0  0  0  0  0  0  0  0  0  0  0  0
    4.9637   -2.1728    0.0000 C   0  0  0  0  0  0  0  0  0  0  0  0
    5.9595   -1.0510    0.0000 C   0  0  0  0  0  0  0  0  0  0  0  0
    7.4289   -1.3524    0.0000 O   0  0  0  0  0  0  0  0  0  0  0  0
    5.4858    0.3723    0.0000 C   0  0  0  0  0  0  0  0  0  0  0  0
    4.0164    0.6737    0.0000 C   0  0  0  0  0  0  0  0  0  0  0  0
    3.5428    2.0969    0.0000 C   0  0  0  0  0  0  0  0  0  0  0  0
    2.0734    2.3984    0.0000 C   0  0  0  0  0  0  0  0  0  0  0  0
    1.0776    1.2766    0.0000 C   0  0  0  0  0  0  0  0  0  0  0  0
    1.5513   -0.1467    0.0000 C   0  0  0  0  0  0  0  0  0  0  0  0
    0.5555   -1.2685    0.0000 C   0  0  0  0  0  0  0  0  0  0  0  0
   -0.9139   -0.9671    0.0000 C   0  0  0  0  0  0  0  0  0  0  0  0
   -1.9096   -2.0889    0.0000 O   0  0  0  0  0  0  0  0  0  0  0  0
   -1.3875    0.4562    0.0000 C   0  0  0  0  0  0  0  0  0  0  0  0
   -2.4951   -0.5554    0.0000 C   0  0  0  0  0  0  0  0  0  0  0  0
   -2.7622    1.0565    0.0000 C   0  0  0  0  0  0  0  0  0  0  0  0
   -4.0558    0.2973    0.0000 C   0  0  0  0  0  0  0  0  0  0  0  0
   -4.2020   -1.1955    0.0000 C   0  0  0  0  0  0  0  0  0  0  0  0
   -5.6670   -1.5178    0.0000 C   0  0  0  0  0  0  0  0  0  0  0  0
   -6.2673   -2.8925    0.0000 O   0  0  0  0  0  0  0  0  0  0  0  0
   -6.4262   -0.2242    0.0000 O   0  0  0  0  0  0  0  0  0  0  0  0
   -5.4305    0.8977    0.0000 C   0  0  0  0  0  0  0  0  0  0  0  0
   -2.6160    2.5494    0.0000 C   0  0  0  0  0  0  0  0  0  0  0  0
   -1.1510    2.8717    0.0000 C   0  0  0  0  0  0  0  0  0  0  0  0
   -0.3918    1.5780    0.0000 C   0  0  0  0  0  0  0  0  0  0  0  0
    0.4812    2.7978    0.0000 O   0  0  0  0  0  0  0  0  0  0  0  0
  2  1  1  1
  2  3  1  0
  3  4  1  0
  4  5  1  0
  5  6  1  1
  5  7  1  0
  8  7  1  6
  8  9  1  0
  9 10  1  0
 11 10  1  6
 11 12  1  0
 12 13  1  1
 13 14  1  0
 14 15  1  1
 14 16  1  0
 16 17  1  1
 16 18  1  0
 18 19  1  1
 19 20  2  0
 20 21  1  0
 21 22  2  0
 21 23  1  0
 23 24  1  0
 18 25  1  0
 25 26  1  0
 26 27  1  0
 27 28  1  1
  8  2  1  0
 27 11  1  0
 12  2  1  0
 27 16  1  0
 24 19  1  0
M  END
> <Identifier>
Drug_269

> <Carcinogen>
0

$$$$

     RDKit          2D

 10  9  0  0  0  0  0  0  0  0999 V2000
   -4.4693    0.9153    0.0000 C   0  0  0  0  0  0  0  0  0  0  0  0
   -3.2691    0.0155    0.0000 N   0  0  0  0  0  0  0  0  0  0  0  0
   -3.4483   -1.4737    0.0000 C   0  0  0  0  0  0  0  0  0  0  0  0
   -1.8898    0.6050    0.0000 C   0  0  0  0  0  0  0  0  0  0  0  0
   -0.6897   -0.2947    0.0000 C   0  0  0  0  0  0  0  0  0  0  0  0
    0.6897    0.2947    0.0000 C   0  0  0  0  0  0  0  0  0  0  0  0
    1.8898   -0.6050    0.0000 S   0  0  0  0  0  0  0  0  0  0  0  0
    3.2691   -0.0155    0.0000 C   0  0  0  0  0  0  0  0  0  0  0  0
    3.4483    1.4737    0.0000 N   0  0  0  0  0  0  0  0  0  0  0  0
    4.4693   -0.9153    0.0000 N   0  0  0  0  0  0  0  0  0  0  0  0
  1  2  1  0
  2  3  1  0
  2  4  1  0
  4  5  1  0
  5  6  1  0
  6  7  1  0
  7  8  1  0
  8  9  2  0
  8 10  1  0
M  END
> <Identifier>
Drug_270

> <Carcinogen>
0

$$$$

     RDKit          2D

 19 21  0  0  0  0  0  0  0  0999 V2000
   -2.9149   -2.3747    0.0000 O   0  0  0  0  0  0  0  0  0  0  0  0
   -3.6254   -1.0537    0.0000 C   0  0  0  0  0  0  0  0  0  0  0  0
   -5.1248   -1.0086    0.0000 C   0  0  0  0  0  0  0  0  0  0  0  0
   -5.8353    0.3124    0.0000 C   0  0  0  0  0  0  0  0  0  0  0  0
   -5.0466    1.5883    0.0000 C   0  0  0  0  0  0  0  0  0  0  0  0
   -3.5473    1.5432    0.0000 C   0  0  0  0  0  0  0  0  0  0  0  0
   -2.8367    0.2222    0.0000 C   0  0  0  0  0  0  0  0  0  0  0  0
   -1.3374    0.1771    0.0000 N   0  0  0  0  0  0  0  0  0  0  0  0
   -0.6268   -1.1440    0.0000 C   0  0  0  0  0  0  0  0  0  0  0  0
    0.8725   -1.1891    0.0000 C   0  0  0  0  0  0  0  0  0  0  0  0
    1.6613    0.0868    0.0000 C   0  0  0  0  0  0  0  0  0  0  0  0
    3.1606    0.0417    0.0000 C   0  0  0  0  0  0  0  0  0  0  0  0
    3.8712   -1.2793    0.0000 C   0  0  0  0  0  0  0  0  0  0  0  0
    5.3705   -1.3245    0.0000 C   0  0  0  0  0  0  0  0  0  0  0  0
    6.1592   -0.0486    0.0000 C   0  0  0  0  0  0  0  0  0  0  0  0
    5.4486    1.2725    0.0000 C   0  0  0  0  0  0  0  0  0  0  0  0
    3.9493    1.3176    0.0000 C   0  0  0  0  0  0  0  0  0  0  0  0
    0.9507    1.4078    0.0000 C   0  0  0  0  0  0  0  0  0  0  0  0
   -0.5486    1.4529    0.0000 C   0  0  0  0  0  0  0  0  0  0  0  0
  2  1  1  6
  2  3  1  0
  3  4  1  0
  4  5  1  0
  5  6  1  0
  6  7  1  0
  7  8  1  1
  8  9  1  0
  9 10  1  0
 10 11  1  0
 11 12  1  0
 12 13  2  0
 13 14  1  0
 14 15  2  0
 15 16  1  0
 16 17  2  0
 11 18  1  0
 18 19  1  0
  7  2  1  0
 19  8  1  0
 17 12  1  0
M  END
> <Identifier>
Drug_271

> <Carcinogen>
0

$$$$

     RDKit          2D

 18 19  0  0  0  0  0  0  0  0999 V2000
   -7.0247   -0.0930    0.0000 C   0  0  0  0  0  0  0  0  0  0  0  0
   -5.8031   -0.9634    0.0000 O   0  0  0  0  0  0  0  0  0  0  0  0
   -4.4385   -0.3407    0.0000 C   0  0  0  0  0  0  0  0  0  0  0  0
   -4.2955    1.1525    0.0000 O   0  0  0  0  0  0  0  0  0  0  0  0
   -3.2169   -1.2111    0.0000 N   0  0  0  0  0  0  0  0  0  0  0  0
   -1.8523   -0.5884    0.0000 C   0  0  0  0  0  0  0  0  0  0  0  0
   -0.5463   -1.3264    0.0000 N   0  0  0  0  0  0  0  0  0  0  0  0
    0.5591   -0.3124    0.0000 C   0  0  0  0  0  0  0  0  0  0  0  0
    2.0522   -0.4555    0.0000 C   0  0  0  0  0  0  0  0  0  0  0  0
    2.9227    0.7661    0.0000 C   0  0  0  0  0  0  0  0  0  0  0  0
    4.4158    0.6231    0.0000 S   0  0  0  0  0  0  0  0  0  0  0  0
    5.0386   -0.7415    0.0000 C   0  0  0  0  0  0  0  0  0  0  0  0
    6.5317   -0.8845    0.0000 C   0  0  0  0  0  0  0  0  0  0  0  0
    4.1681   -1.9631    0.0000 C   0  0  0  0  0  0  0  0  0  0  0  0
    2.2999    2.1308    0.0000 C   0  0  0  0  0  0  0  0  0  0  0  0
    0.8068    2.2738    0.0000 C   0  0  0  0  0  0  0  0  0  0  0  0
   -0.0637    1.0522    0.0000 C   0  0  0  0  0  0  0  0  0  0  0  0
   -1.5539    0.8816    0.0000 N   0  0  0  0  0  0  0  0  0  0  0  0
  1  2  1  0
  2  3  1  0
  3  4  2  0
  3  5  1  0
  5  6  1  0
  6  7  2  0
  7  8  1  0
  8  9  2  0
  9 10  1  0
 10 11  1  0
 11 12  1  0
 12 13  1  0
 12 14  1  0
 10 15  2  0
 15 16  1  0
 16 17  2  0
 17 18  1  0
 18  6  1  0
 17  8  1  0
M  END
> <Identifier>
Drug_272

> <Carcinogen>
0

$$$$

     RDKit          2D

 26 29  0  0  0  0  0  0  0  0999 V2000
   -4.8966    1.6436    0.0000 C   0  0  0  0  0  0  0  0  0  0  0  0
   -3.4527    1.2373    0.0000 N   0  0  0  0  0  0  0  0  0  0  0  0
   -2.3789    2.2847    0.0000 C   0  0  0  0  0  0  0  0  0  0  0  0
   -3.0826   -0.2163    0.0000 C   0  0  0  0  0  0  0  0  0  0  0  0
   -4.2317   -1.1805    0.0000 C   0  0  0  0  0  0  0  0  0  0  0  0
   -4.1943   -2.6800    0.0000 C   0  0  0  0  0  0  0  0  0  0  0  0
   -2.9986   -3.5857    0.0000 C   0  0  0  0  0  0  0  0  0  0  0  0
   -1.5450   -3.2156    0.0000 C   0  0  0  0  0  0  0  0  0  0  0  0
   -0.9280   -1.8483    0.0000 C   0  0  0  0  0  0  0  0  0  0  0  0
    0.5715   -1.8110    0.0000 O   0  0  0  0  0  0  0  0  0  0  0  0
    1.2889   -0.4936    0.0000 C   0  0  0  0  0  0  0  0  0  0  0  0
    2.7870   -0.5684    0.0000 C   0  0  0  0  0  0  0  0  0  0  0  0
    3.2647   -1.9903    0.0000 C   0  0  0  0  0  0  0  0  0  0  0  0
    4.7350   -2.2875    0.0000 C   0  0  0  0  0  0  0  0  0  0  0  0
    5.7275   -1.1629    0.0000 C   0  0  0  0  0  0  0  0  0  0  0  0
    5.2498    0.2590    0.0000 C   0  0  0  0  0  0  0  0  0  0  0  0
    3.7796    0.5562    0.0000 C   0  0  0  0  0  0  0  0  0  0  0  0
    3.5191    2.0335    0.0000 C   0  0  0  0  0  0  0  0  0  0  0  0
    2.2018    2.7509    0.0000 C   0  0  0  0  0  0  0  0  0  0  0  0
    0.8196    2.1682    0.0000 C   0  0  0  0  0  0  0  0  0  0  0  0
   -0.2278    3.2420    0.0000 C   0  0  0  0  0  0  0  0  0  0  0  0
   -1.6814    2.8719    0.0000 C   0  0  0  0  0  0  0  0  0  0  0  0
   -2.0877    1.4280    0.0000 C   0  0  0  0  0  0  0  0  0  0  0  0
   -1.0403    0.3542    0.0000 C   0  0  0  0  0  0  0  0  0  0  0  0
    0.4133    0.7243    0.0000 C   0  0  0  0  0  0  0  0  0  0  0  0
   -1.6123   -0.5135    0.0000 C   0  0  0  0  0  0  0  0  0  0  0  0
  1  2  1  0
  2  3  1  0
  4  2  1  1
  4  5  1  0
  5  6  1  0
  6  7  1  0
  7  8  1  0
  8  9  1  0
  9 10  1  0
 10 11  1  0
 11 12  1  0
 12 13  2  0
 13 14  1  0
 14 15  2  0
 15 16  1  0
 16 17  2  0
 17 18  1  0
 18 19  1  0
 19 20  1  0
 20 21  2  0
 21 22  1  0
 22 23  2  0
 23 24  1  0
 24 25  2  0
  9 26  1  0
 26  4  1  0
 25 11  1  0
 17 12  1  0
 25 20  1  0
M  END
> <Identifier>
Drug_273

> <Carcinogen>
0

$$$$

     RDKit          2D

 25 29  0  0  0  0  0  0  0  0999 V2000
   -4.5952    1.3494    0.0000 C   0  0  0  0  0  0  0  0  0  0  0  0
   -3.3576    0.5018    0.0000 C   0  0  0  0  0  0  0  0  0  0  0  0
   -1.9445    1.0047    0.0000 C   0  0  0  0  0  0  0  0  0  0  0  0
   -1.0294   -0.1839    0.0000 C   0  0  0  0  0  0  0  0  0  0  0  0
   -2.5047    0.0871    0.0000 C   0  0  0  0  0  0  0  0  0  0  0  0
   -3.4771   -1.0550    0.0000 C   0  0  0  0  0  0  0  0  0  0  0  0
   -4.9524   -0.7840    0.0000 O   0  0  0  0  0  0  0  0  0  0  0  0
   -2.9741   -2.4682    0.0000 C   0  0  0  0  0  0  0  0  0  0  0  0
   -1.4988   -2.7392    0.0000 C   0  0  0  0  0  0  0  0  0  0  0  0
   -0.5264   -1.5970    0.0000 C   0  0  0  0  0  0  0  0  0  0  0  0
    0.9730   -1.5554    0.0000 C   0  0  0  0  0  0  0  0  0  0  0  0
    2.0072   -2.6418    0.0000 C   0  0  0  0  0  0  0  0  0  0  0  0
    3.4652   -2.2893    0.0000 C   0  0  0  0  0  0  0  0  0  0  0  0
    3.8890   -0.8504    0.0000 C   0  0  0  0  0  0  0  0  0  0  0  0
    5.3470   -0.4979    0.0000 O   0  0  0  0  0  0  0  0  0  0  0  0
    2.8547    0.2361    0.0000 C   0  0  0  0  0  0  0  0  0  0  0  0
    3.2784    1.6750    0.0000 C   0  0  0  0  0  0  0  0  0  0  0  0
    1.5353    0.9497    0.0000 C   0  0  0  0  0  0  0  0  0  0  0  0
    1.5228    2.1646    0.0000 O   0  0  0  0  0  0  0  0  0  0  0  0
    0.4489   -0.0846    0.0000 O   0  0  0  0  0  0  0  0  0  0  0  0
    1.3967   -0.1164    0.0000 C   0  0  0  0  0  0  0  0  0  0  0  0
    0.1592    0.7312    0.0000 C   0  0  0  0  0  0  0  0  0  0  0  0
    0.1175    2.2306    0.0000 C   0  0  0  0  0  0  0  0  0  0  0  0
    1.0671    2.9885    0.0000 O   0  0  0  0  0  0  0  0  0  0  0  0
   -1.2019    2.9442    0.0000 O   0  0  0  0  0  0  0  0  0  0  0  0
  1  2  2  0
  2  3  1  0
  4  3  1  1
  4  5  1  0
  5  6  1  0
  6  7  1  6
  6  8  1  0
  8  9  1  0
 10  9  1  6
 10 11  1  0
 11 12  1  0
 12 13  2  0
 13 14  1  0
 14 15  1  1
 14 16  1  0
 16 17  1  1
 16 18  1  0
 18 19  2  0
 18 20  1  0
 16 21  1  0
 21 22  1  6
 22 23  1  1
 23 24  2  0
 23 25  1  0
  6  2  1  0
 11 20  1  6
 10  4  1  0
 21 11  1  0
 22  4  1  0
M  END
> <Identifier>
Drug_274

> <Carcinogen>
0

$$$$

     RDKit          2D

 43 46  0  0  0  0  0  0  0  0999 V2000
   -0.5201    4.3254    0.0000 C   0  0  0  0  0  0  0  0  0  0  0  0
    0.7002    3.4531    0.0000 N   0  0  0  0  0  0  0  0  0  0  0  0
    2.0657    4.0738    0.0000 C   0  0  0  0  0  0  0  0  0  0  0  0
    0.5549    1.9602    0.0000 C   0  0  0  0  0  0  0  0  0  0  0  0
   -0.8106    1.3395    0.0000 C   0  0  0  0  0  0  0  0  0  0  0  0
   -2.0309    2.2117    0.0000 O   0  0  0  0  0  0  0  0  0  0  0  0
   -0.9559   -0.1535    0.0000 C   0  0  0  0  0  0  0  0  0  0  0  0
   -2.3214   -0.7742    0.0000 C   0  0  0  0  0  0  0  0  0  0  0  0
   -2.4667   -2.2671    0.0000 O   0  0  0  0  0  0  0  0  0  0  0  0
   -3.5417    0.0981    0.0000 N   0  0  0  0  0  0  0  0  0  0  0  0
   -4.9073   -0.5226    0.0000 C   0  0  0  0  0  0  0  0  0  0  0  0
   -6.1276    0.3497    0.0000 N   0  0  0  0  0  0  0  0  0  0  0  0
   -7.4932   -0.2710    0.0000 C   0  0  0  0  0  0  0  0  0  0  0  0
   -8.7135    0.6012    0.0000 C   0  0  0  0  0  0  0  0  0  0  0  0
  -10.0790   -0.0195    0.0000 C   0  0  0  0  0  0  0  0  0  0  0  0
  -11.2993    0.8528    0.0000 C   0  0  0  0  0  0  0  0  0  0  0  0
  -12.6649    0.2321    0.0000 C   0  0  0  0  0  0  0  0  0  0  0  0
  -13.8852    1.1044    0.0000 N   0  0  0  0  0  0  0  0  0  0  0  0
   -7.6384   -1.7640    0.0000 C   0  0  0  0  0  0  0  0  0  0  0  0
   -6.4181   -2.6362    0.0000 O   0  0  0  0  0  0  0  0  0  0  0  0
   -9.0040   -2.3847    0.0000 O   0  0  0  0  0  0  0  0  0  0  0  0
    0.2644   -1.0257    0.0000 C   0  0  0  0  0  0  0  0  0  0  0  0
    0.1192   -2.5187    0.0000 O   0  0  0  0  0  0  0  0  0  0  0  0
    1.6300   -0.4050    0.0000 C   0  0  0  0  0  0  0  0  0  0  0  0
    1.4848   -1.8980    0.0000 O   0  0  0  0  0  0  0  0  0  0  0  0
    2.8503   -1.2773    0.0000 C   0  0  0  0  0  0  0  0  0  0  0  0
    2.7051   -2.7702    0.0000 O   0  0  0  0  0  0  0  0  0  0  0  0
    4.2159   -0.6566    0.0000 C   0  0  0  0  0  0  0  0  0  0  0  0
    5.4362   -1.5289    0.0000 C   0  0  0  0  0  0  0  0  0  0  0  0
    5.2909   -3.0218    0.0000 O   0  0  0  0  0  0  0  0  0  0  0  0
    6.8017   -0.9082    0.0000 C   0  0  0  0  0  0  0  0  0  0  0  0
    8.0221   -1.7804    0.0000 C   0  0  0  0  0  0  0  0  0  0  0  0
    7.8768   -3.2734    0.0000 O   0  0  0  0  0  0  0  0  0  0  0  0
    9.3876   -1.1597    0.0000 C   0  0  0  0  0  0  0  0  0  0  0  0
    9.5328    0.3332    0.0000 C   0  0  0  0  0  0  0  0  0  0  0  0
    8.3125    1.2055    0.0000 C   0  0  0  0  0  0  0  0  0  0  0  0
    6.9470    0.5848    0.0000 C   0  0  0  0  0  0  0  0  0  0  0  0
    5.7267    1.4570    0.0000 C   0  0  0  0  0  0  0  0  0  0  0  0
    4.8783    2.6941    0.0000 C   0  0  0  0  0  0  0  0  0  0  0  0
    6.7976    2.5073    0.0000 O   0  0  0  0  0  0  0  0  0  0  0  0
    4.3611    0.8363    0.0000 C   0  0  0  0  0  0  0  0  0  0  0  0
    3.1408    1.7086    0.0000 C   0  0  0  0  0  0  0  0  0  0  0  0
    1.7752    1.0879    0.0000 C   0  0  0  0  0  0  0  0  0  0  0  0
  1  2  1  0
  2  3  1  0
  4  2  1  1
  4  5  1  0
  5  6  1  0
  5  7  2  0
  7  8  1  0
  8  9  2  0
  8 10  1  0
 10 11  1  0
 11 12  1  0
 12 13  1  0
 13 14  1  0
 14 15  1  0
 15 16  1  0
 16 17  1  0
 17 18  1  0
 13 19  1  0
 19 20  2  0
 19 21  1  0
  7 22  1  0
 22 23  2  0
 22 24  1  0
 24 25  1  1
 24 26  1  0
 26 27  1  0
 26 28  2  0
 28 29  1  0
 29 30  2  0
 29 31  1  0
 31 32  2  0
 32 33  1  0
 32 34  1  0
 34 35  2  0
 35 36  1  0
 36 37  2  0
 37 38  1  0
 38 39  1  1
 38 40  1  0
 38 41  1  0
 41 42  1  6
 43 42  1  6
 43  4  1  0
 43 24  1  0
 41 28  1  0
 37 31  1  0
M  END
> <Identifier>
Drug_275

> <Carcinogen>
0

$$$$

     RDKit          2D

 17 17  0  0  0  0  0  0  0  0999 V2000
    4.5401   -2.4025    0.0000 C   0  0  0  0  0  0  0  0  0  0  0  0
    4.1355   -0.9581    0.0000 O   0  0  0  0  0  0  0  0  0  0  0  0
    2.6823   -0.5863    0.0000 C   0  0  0  0  0  0  0  0  0  0  0  0
    1.6337   -1.6589    0.0000 C   0  0  0  0  0  0  0  0  0  0  0  0
    0.1805   -1.2871    0.0000 C   0  0  0  0  0  0  0  0  0  0  0  0
   -0.2240    0.1573    0.0000 C   0  0  0  0  0  0  0  0  0  0  0  0
   -1.6772    0.5292    0.0000 C   0  0  0  0  0  0  0  0  0  0  0  0
   -2.7258   -0.5434    0.0000 C   0  0  0  0  0  0  0  0  0  0  0  0
   -3.7744   -1.6160    0.0000 C   0  0  0  0  0  0  0  0  0  0  0  0
   -1.6532   -1.5920    0.0000 N   0  0  0  0  0  0  0  0  0  0  0  0
   -3.7984    0.5052    0.0000 C   0  0  0  0  0  0  0  0  0  0  0  0
   -3.4266    1.9584    0.0000 O   0  0  0  0  0  0  0  0  0  0  0  0
   -5.2428    0.1006    0.0000 O   0  0  0  0  0  0  0  0  0  0  0  0
    0.8246    1.2299    0.0000 C   0  0  0  0  0  0  0  0  0  0  0  0
    2.2777    0.8581    0.0000 C   0  0  0  0  0  0  0  0  0  0  0  0
    3.3263    1.9307    0.0000 O   0  0  0  0  0  0  0  0  0  0  0  0
    2.9218    3.3751    0.0000 C   0  0  0  0  0  0  0  0  0  0  0  0
  1  2  1  0
  2  3  1  0
  3  4  2  0
  4  5  1  0
  5  6  2  0
  6  7  1  0
  7  8  1  0
  8  9  1  6
  8 10  1  0
  8 11  1  0
 11 12  2  0
 11 13  1  0
  6 14  1  0
 14 15  2  0
 15 16  1  0
 16 17  1  0
 15  3  1  0
M  END
> <Identifier>
Drug_276

> <Carcinogen>
0

$$$$

     RDKit          2D

 21 24  0  0  0  0  0  0  0  0999 V2000
    5.7465    0.3939    0.0000 C   0  0  0  0  0  0  0  0  0  0  0  0
    4.2544    0.2409    0.0000 N   0  0  0  0  0  0  0  0  0  0  0  0
    3.6408   -1.1279    0.0000 C   0  0  0  0  0  0  0  0  0  0  0  0
    2.1487   -1.2810    0.0000 C   0  0  0  0  0  0  0  0  0  0  0  0
    1.2700   -0.0653    0.0000 C   0  0  0  0  0  0  0  0  0  0  0  0
   -0.2222   -0.2183    0.0000 C   0  0  0  0  0  0  0  0  0  0  0  0
   -1.0075    1.0596    0.0000 C   0  0  0  0  0  0  0  0  0  0  0  0
   -0.1048    2.2576    0.0000 C   0  0  0  0  0  0  0  0  0  0  0  0
   -0.6909    3.6384    0.0000 C   0  0  0  0  0  0  0  0  0  0  0  0
   -2.1797    3.8212    0.0000 C   0  0  0  0  0  0  0  0  0  0  0  0
   -3.0824    2.6232    0.0000 C   0  0  0  0  0  0  0  0  0  0  0  0
   -2.4963    1.2425    0.0000 C   0  0  0  0  0  0  0  0  0  0  0  0
   -3.5675    0.1924    0.0000 C   0  0  0  0  0  0  0  0  0  0  0  0
   -3.4144   -1.2997    0.0000 C   0  0  0  0  0  0  0  0  0  0  0  0
   -2.1524   -2.1104    0.0000 C   0  0  0  0  0  0  0  0  0  0  0  0
   -2.1337   -3.6103    0.0000 S   0  0  0  0  0  0  0  0  0  0  0  0
   -0.7014   -4.0560    0.0000 C   0  0  0  0  0  0  0  0  0  0  0  0
    0.1651   -2.8316    0.0000 C   0  0  0  0  0  0  0  0  0  0  0  0
   -0.7317   -1.6292    0.0000 C   0  0  0  0  0  0  0  0  0  0  0  0
    1.8835    1.3035    0.0000 C   0  0  0  0  0  0  0  0  0  0  0  0
    3.3757    1.4566    0.0000 C   0  0  0  0  0  0  0  0  0  0  0  0
  1  2  1  0
  2  3  1  0
  3  4  1  0
  4  5  1  0
  5  6  2  0
  6  7  1  0
  7  8  2  0
  8  9  1  0
  9 10  2  0
 10 11  1  0
 11 12  2  0
 12 13  1  0
 13 14  1  0
 14 15  1  0
 15 16  1  0
 16 17  1  0
 17 18  2  0
 18 19  1  0
  5 20  1  0
 20 21  1  0
 21  2  1  0
 19  6  1  0
 12  7  1  0
 19 15  2  0
M  END
> <Identifier>
Drug_277

> <Carcinogen>
0

$$$$

     RDKit          2D

 13 13  0  0  0  0  0  0  0  0999 V2000
    2.3944    1.7262    0.0000 O   0  0  0  0  0  0  0  0  0  0  0  0
    2.3172    0.2282    0.0000 C   0  0  0  0  0  0  0  0  0  0  0  0
    3.5759   -0.5877    0.0000 O   0  0  0  0  0  0  0  0  0  0  0  0
    0.9813   -0.4540    0.0000 C   0  0  0  0  0  0  0  0  0  0  0  0
    1.8850   -1.6511    0.0000 O   0  0  0  0  0  0  0  0  0  0  0  0
   -0.0408   -1.5519    0.0000 C   0  0  0  0  0  0  0  0  0  0  0  0
   -1.5026   -1.2157    0.0000 C   0  0  0  0  0  0  0  0  0  0  0  0
   -2.5247   -2.3136    0.0000 O   0  0  0  0  0  0  0  0  0  0  0  0
   -1.9424    0.2184    0.0000 C   0  0  0  0  0  0  0  0  0  0  0  0
   -3.4043    0.5545    0.0000 O   0  0  0  0  0  0  0  0  0  0  0  0
   -0.9204    1.3163    0.0000 C   0  0  0  0  0  0  0  0  0  0  0  0
   -1.3602    2.7504    0.0000 O   0  0  0  0  0  0  0  0  0  0  0  0
    0.5415    0.9801    0.0000 C   0  0  0  0  0  0  0  0  0  0  0  0
  1  2  2  0
  2  3  1  0
  2  4  1  0
  4  5  1  1
  4  6  1  0
  6  7  1  0
  7  8  1  6
  7  9  1  0
  9 10  1  1
  9 11  1  0
 11 12  1  1
 11 13  1  0
 13  4  1  0
M  END
> <Identifier>
Drug_278

> <Carcinogen>
0

$$$$

     RDKit          2D

 61 66  0  0  0  0  0  0  0  0999 V2000
   13.3652   -0.5163    0.0000 C   0  0  0  0  0  0  0  0  0  0  0  0
   11.9286   -0.0851    0.0000 C   0  0  0  0  0  0  0  0  0  0  0  0
   10.8368   -1.1137    0.0000 C   0  0  0  0  0  0  0  0  0  0  0  0
   11.1817   -2.5735    0.0000 C   0  0  0  0  0  0  0  0  0  0  0  0
    9.4001   -0.6826    0.0000 N   0  0  0  0  0  0  0  0  0  0  0  0
    8.3084   -1.7112    0.0000 C   0  0  0  0  0  0  0  0  0  0  0  0
    6.8717   -1.2800    0.0000 C   0  0  0  0  0  0  0  0  0  0  0  0
    6.5267    0.1798    0.0000 C   0  0  0  0  0  0  0  0  0  0  0  0
    7.6185    1.2084    0.0000 C   0  0  0  0  0  0  0  0  0  0  0  0
    9.0552    0.7772    0.0000 C   0  0  0  0  0  0  0  0  0  0  0  0
    5.3334   -0.7291    0.0000 N   0  0  0  0  0  0  0  0  0  0  0  0
    4.1003    0.1249    0.0000 C   0  0  0  0  0  0  0  0  0  0  0  0
    4.5315    1.5616    0.0000 C   0  0  0  0  0  0  0  0  0  0  0  0
    3.5028    2.6534    0.0000 C   0  0  0  0  0  0  0  0  0  0  0  0
    2.8059    5.0068    0.0000 N   0  0  0  0  0  0  0  0  0  0  0  0
    1.5773    5.8673    0.0000 C   0  0  0  0  0  0  0  0  0  0  0  0
    1.9021    7.3317    0.0000 O   0  0  0  0  0  0  0  0  0  0  0  0
    0.0830    5.9982    0.0000 C   0  0  0  0  0  0  0  0  0  0  0  0
   -0.2418    4.5338    0.0000 C   0  0  0  0  0  0  0  0  0  0  0  0
   -1.3265    6.5114    0.0000 C   0  0  0  0  0  0  0  0  0  0  0  0
   -2.6860    5.8776    0.0000 C   0  0  0  0  0  0  0  0  0  0  0  0
   -4.1633    5.6173    0.0000 C   0  0  0  0  0  0  0  0  0  0  0  0
   -5.3124    4.6533    0.0000 C   0  0  0  0  0  0  0  0  0  0  0  0
   -6.4182    5.6668    0.0000 C   0  0  0  0  0  0  0  0  0  0  0  0
   -6.1730    3.4247    0.0000 C   0  0  0  0  0  0  0  0  0  0  0  0
   -7.5034    4.1174    0.0000 O   0  0  0  0  0  0  0  0  0  0  0  0
   -6.6861    2.0152    0.0000 C   0  0  0  0  0  0  0  0  0  0  0  0
   -8.1506    2.3400    0.0000 C   0  0  0  0  0  0  0  0  0  0  0  0
   -6.8171    0.5209    0.0000 C   0  0  0  0  0  0  0  0  0  0  0  0
   -8.3156    0.4557    0.0000 O   0  0  0  0  0  0  0  0  0  0  0  0
   -6.5567   -0.9563    0.0000 C   0  0  0  0  0  0  0  0  0  0  0  0
   -7.9874   -1.4072    0.0000 C   0  0  0  0  0  0  0  0  0  0  0  0
   -5.9230   -2.3159    0.0000 C   0  0  0  0  0  0  0  0  0  0  0  0
   -7.1882   -3.1217    0.0000 O   0  0  0  0  0  0  0  0  0  0  0  0
   -8.5186   -2.4289    0.0000 C   0  0  0  0  0  0  0  0  0  0  0  0
   -8.5839   -0.9303    0.0000 C   0  0  0  0  0  0  0  0  0  0  0  0
   -9.7838   -3.2347    0.0000 O   0  0  0  0  0  0  0  0  0  0  0  0
   -4.9589   -3.4650    0.0000 C   0  0  0  0  0  0  0  0  0  0  0  0
   -5.9724   -4.5708    0.0000 C   0  0  0  0  0  0  0  0  0  0  0  0
   -3.7303   -4.3256    0.0000 C   0  0  0  0  0  0  0  0  0  0  0  0
   -4.0551   -5.7900    0.0000 O   0  0  0  0  0  0  0  0  0  0  0  0
   -5.4858   -6.2409    0.0000 C   0  0  0  0  0  0  0  0  0  0  0  0
   -2.2360   -4.4565    0.0000 C   0  0  0  0  0  0  0  0  0  0  0  0
   -0.8265   -4.9697    0.0000 C   0  0  0  0  0  0  0  0  0  0  0  0
    0.6507   -4.7094    0.0000 O   0  0  0  0  0  0  0  0  0  0  0  0
    2.0102   -4.0756    0.0000 C   0  0  0  0  0  0  0  0  0  0  0  0
    2.3552   -5.5354    0.0000 C   0  0  0  0  0  0  0  0  0  0  0  0
    0.6265   -3.4966    0.0000 O   0  0  0  0  0  0  0  0  0  0  0  0
    0.7495   -2.0017    0.0000 C   0  0  0  0  0  0  0  0  0  0  0  0
   -0.2791   -0.9099    0.0000 C   0  0  0  0  0  0  0  0  0  0  0  0
   -1.7389   -1.2548    0.0000 C   0  0  0  0  0  0  0  0  0  0  0  0
    0.1521    0.5268    0.0000 C   0  0  0  0  0  0  0  0  0  0  0  0
   -0.8766    1.6185    0.0000 O   0  0  0  0  0  0  0  0  0  0  0  0
    1.6119    0.8717    0.0000 C   0  0  0  0  0  0  0  0  0  0  0  0
    2.6405   -0.2200    0.0000 C   0  0  0  0  0  0  0  0  0  0  0  0
    2.2093   -1.6567    0.0000 C   0  0  0  0  0  0  0  0  0  0  0  0
    2.9885   -2.9385    0.0000 C   0  0  0  0  0  0  0  0  0  0  0  0
    4.4834   -3.0615    0.0000 O   0  0  0  0  0  0  0  0  0  0  0  0
    2.0430    2.3084    0.0000 C   0  0  0  0  0  0  0  0  0  0  0  0
    1.0144    3.4002    0.0000 O   0  0  0  0  0  0  0  0  0  0  0  0
    6.0311    1.5955    0.0000 N   0  0  0  0  0  0  0  0  0  0  0  0
  1  2  1  0
  2  3  1  0
  3  4  1  0
  3  5  1  0
  5  6  1  0
  6  7  1  0
  7  8  1  0
  8  9  1  0
  9 10  1  0
  8 11  1  0
 11 12  2  0
 12 13  1  0
 13 14  2  0
 14 15  1  0
 15 16  1  0
 16 17  2  0
 16 18  1  0
 18 19  1  0
 18 20  2  0
 20 21  1  0
 21 22  2  0
 22 23  1  0
 23 24  1  1
 23 25  1  0
 25 26  1  1
 25 27  1  0
 27 28  1  6
 27 29  1  0
 29 30  1  6
 29 31  1  0
 31 32  1  6
 31 33  1  0
 33 34  1  1
 34 35  1  0
 35 36  1  0
 35 37  2  0
 33 38  1  0
 38 39  1  1
 38 40  1  0
 40 41  1  6
 41 42  1  0
 40 43  1  0
 43 44  2  0
 44 45  1  0
 45 46  1  0
 46 47  1  6
 46 48  1  0
 48 49  1  0
 49 50  1  0
 50 51  1  0
 50 52  2  0
 52 53  1  0
 52 54  1  0
 54 55  2  0
 55 56  1  0
 56 57  1  0
 57 58  2  0
 54 59  1  0
 59 60  2  0
 13 61  1  0
 10  5  1  0
 55 12  1  0
 61  8  1  0
 59 14  1  0
 57 46  1  0
 56 49  2  0
M  END
> <Identifier>
Drug_279

> <Carcinogen>
0

$$$$

     RDKit          2D

 48 49  0  0  0  0  0  0  0  0999 V2000
  -12.3709    0.9474    0.0000 N   0  0  0  0  0  0  0  0  0  0  0  0
  -11.3529   -0.1542    0.0000 C   0  0  0  0  0  0  0  0  0  0  0  0
   -9.8898    0.1766    0.0000 C   0  0  0  0  0  0  0  0  0  0  0  0
   -8.8718   -0.9251    0.0000 C   0  0  0  0  0  0  0  0  0  0  0  0
   -7.4087   -0.5943    0.0000 C   0  0  0  0  0  0  0  0  0  0  0  0
   -6.9636    0.8382    0.0000 N   0  0  0  0  0  0  0  0  0  0  0  0
   -6.3907   -1.6960    0.0000 C   0  0  0  0  0  0  0  0  0  0  0  0
   -4.9276   -1.3652    0.0000 C   0  0  0  0  0  0  0  0  0  0  0  0
   -4.4826    0.0673    0.0000 O   0  0  0  0  0  0  0  0  0  0  0  0
   -3.9096   -2.4668    0.0000 N   0  0  0  0  0  0  0  0  0  0  0  0
   -2.4465   -2.1360    0.0000 C   0  0  0  0  0  0  0  0  0  0  0  0
   -2.4855   -0.6365    0.0000 C   0  0  0  0  0  0  0  0  0  0  0  0
   -1.9477    0.7637    0.0000 N   0  0  0  0  0  0  0  0  0  0  0  0
   -0.9150    1.8516    0.0000 C   0  0  0  0  0  0  0  0  0  0  0  0
   -1.7805    3.0767    0.0000 O   0  0  0  0  0  0  0  0  0  0  0  0
    0.4554    2.4615    0.0000 C   0  0  0  0  0  0  0  0  0  0  0  0
    0.1246    3.9245    0.0000 C   0  0  0  0  0  0  0  0  0  0  0  0
    1.2263    4.9426    0.0000 C   0  0  0  0  0  0  0  0  0  0  0  0
    0.8955    6.4056    0.0000 C   0  0  0  0  0  0  0  0  0  0  0  0
    1.9971    7.4236    0.0000 O   0  0  0  0  0  0  0  0  0  0  0  0
   -0.5370    6.8507    0.0000 N   0  0  0  0  0  0  0  0  0  0  0  0
   -1.6386    5.8327    0.0000 C   0  0  0  0  0  0  0  0  0  0  0  0
   -3.0711    6.2777    0.0000 N   0  0  0  0  0  0  0  0  0  0  0  0
   -1.3078    4.3696    0.0000 N   0  0  0  0  0  0  0  0  0  0  0  0
    1.9549    2.5005    0.0000 N   0  0  0  0  0  0  0  0  0  0  0  0
    3.3552    1.9627    0.0000 C   0  0  0  0  0  0  0  0  0  0  0  0
    4.1558    3.2311    0.0000 O   0  0  0  0  0  0  0  0  0  0  0  0
    4.4430    0.9300    0.0000 C   0  0  0  0  0  0  0  0  0  0  0  0
    5.6682    1.7955    0.0000 C   0  0  0  0  0  0  0  0  0  0  0  0
    7.0303    1.1672    0.0000 N   0  0  0  0  0  0  0  0  0  0  0  0
    8.2554    2.0327    0.0000 C   0  0  0  0  0  0  0  0  0  0  0  0
    9.6175    1.4045    0.0000 N   0  0  0  0  0  0  0  0  0  0  0  0
    8.1184    3.5265    0.0000 O   0  0  0  0  0  0  0  0  0  0  0  0
    5.0529   -0.4405    0.0000 N   0  0  0  0  0  0  0  0  0  0  0  0
    5.0919   -1.9400    0.0000 C   0  0  0  0  0  0  0  0  0  0  0  0
    6.5702   -2.1942    0.0000 O   0  0  0  0  0  0  0  0  0  0  0  0
    4.5541   -3.3402    0.0000 C   0  0  0  0  0  0  0  0  0  0  0  0
    5.8226   -4.1409    0.0000 C   0  0  0  0  0  0  0  0  0  0  0  0
    5.7634   -5.6397    0.0000 O   0  0  0  0  0  0  0  0  0  0  0  0
    3.5214   -4.4281    0.0000 N   0  0  0  0  0  0  0  0  0  0  0  0
    2.1510   -5.0380    0.0000 C   0  0  0  0  0  0  0  0  0  0  0  0
    2.4818   -6.5010    0.0000 O   0  0  0  0  0  0  0  0  0  0  0  0
    0.6515   -5.0770    0.0000 C   0  0  0  0  0  0  0  0  0  0  0  0
    0.3972   -6.5553    0.0000 C   0  0  0  0  0  0  0  0  0  0  0  0
   -1.0102   -7.0742    0.0000 O   0  0  0  0  0  0  0  0  0  0  0  0
   -0.7488   -4.5392    0.0000 N   0  0  0  0  0  0  0  0  0  0  0  0
   -1.8367   -3.5065    0.0000 C   0  0  0  0  0  0  0  0  0  0  0  0
   -3.0618   -4.3720    0.0000 O   0  0  0  0  0  0  0  0  0  0  0  0
  1  2  1  0
  2  3  1  0
  3  4  1  0
  4  5  1  0
  5  6  1  6
  5  7  1  0
  7  8  1  0
  8  9  2  0
  8 10  1  0
 11 10  1  1
 11 12  1  0
 12 13  1  0
 13 14  1  0
 14 15  2  0
 14 16  1  0
 16 17  1  0
 17 18  1  6
 18 19  1  0
 19 20  1  1
 19 21  1  0
 21 22  2  0
 22 23  1  0
 22 24  1  0
 16 25  1  6
 25 26  1  0
 26 27  2  0
 26 28  1  0
 28 29  2  0
 29 30  1  0
 30 31  1  0
 31 32  1  0
 31 33  2  0
 28 34  1  0
 34 35  1  0
 35 36  2  0
 35 37  1  0
 37 38  1  6
 38 39  1  0
 37 40  1  0
 40 41  1  0
 41 42  2  0
 41 43  1  0
 43 44  1  6
 44 45  1  0
 43 46  1  0
 46 47  1  0
 47 48  2  0
 47 11  1  0
 24 17  1  0
M  END
> <Identifier>
Drug_280

> <Carcinogen>
0

$$$$
