
     RDKit          2D

 10  9  0  0  0  0  0  0  0  0999 V2000
   -4.1569   -0.7500    0.0000 C   0  0  0  0  0  0  0  0  0  0  0  0
   -2.8579    0.0000    0.0000 C   0  0  0  0  0  0  0  0  0  0  0  0
   -2.8579    1.5000    0.0000 O   0  0  0  0  0  0  0  0  0  0  0  0
   -1.5588   -0.7500    0.0000 O   0  0  0  0  0  0  0  0  0  0  0  0
   -0.2598   -0.0000    0.0000 C   0  0  0  0  0  0  0  0  0  0  0  0
    1.0392   -0.7500    0.0000 C   0  0  0  0  0  0  0  0  0  0  0  0
    2.3383   -0.0000    0.0000 N   0  0  0  0  0  4  0  0  0  0  0  0
    3.0883   -1.2990    0.0000 C   0  0  0  0  0  0  0  0  0  0  0  0
    1.5883    1.2990    0.0000 C   0  0  0  0  0  0  0  0  0  0  0  0
    3.6373    0.7500    0.0000 C   0  0  0  0  0  0  0  0  0  0  0  0
  1  2  1  0
  2  3  2  0
  2  4  1  0
  4  5  1  0
  5  6  1  0
  6  7  1  0
  7  8  1  0
  7  9  1  0
  7 10  1  0
M  CHG  1   7   1
M  END
> <Identifier>
187.0

> <DILI>
0

$$$$

     RDKit          2D

  8  7  0  0  0  0  0  0  0  0999 V2000
   -1.8975    1.3780    0.0000 C   0  0  0  0  0  0  0  0  0  0  0  0
   -1.1374    0.0849    0.0000 N   0  0  0  0  0  4  0  0  0  0  0  0
   -0.3772   -1.2083    0.0000 C   0  0  0  0  0  0  0  0  0  0  0  0
   -2.4305   -0.6752    0.0000 C   0  0  0  0  0  0  0  0  0  0  0  0
    0.1558    0.8450    0.0000 C   0  0  0  0  0  0  0  0  0  0  0  0
    1.4606    0.1051    0.0000 C   0  0  0  0  0  0  0  0  0  0  0  0
    1.4723   -1.3948    0.0000 O   0  0  0  0  0  0  0  0  0  0  0  0
    2.7538    0.8653    0.0000 O   0  0  0  0  0  1  0  0  0  0  0  0
  1  2  1  0
  2  3  1  0
  2  4  1  0
  2  5  1  0
  5  6  1  0
  6  7  2  0
  6  8  1  0
M  CHG  2   2   1   8  -1
M  END
> <Identifier>
247.0

> <DILI>
0

$$$$

     RDKit          2D

 20 20  0  0  0  0  0  0  0  0999 V2000
   -4.3554    0.0614    0.0000 O   0  0  0  0  0  0  0  0  0  0  0  0
   -3.0786    0.8487    0.0000 C   0  0  0  0  0  0  0  0  0  0  0  0
   -1.7584    0.1366    0.0000 N   0  0  0  0  0  0  0  0  0  0  0  0
   -1.7150   -1.3627    0.0000 C   0  0  0  0  0  0  0  0  0  0  0  0
   -2.9917   -2.1500    0.0000 C   0  0  0  0  0  0  0  0  0  0  0  0
   -4.3119   -1.4380    0.0000 O   0  0  0  0  0  0  0  0  0  0  0  0
   -0.3948   -2.0748    0.0000 C   0  0  0  0  0  0  0  0  0  0  0  0
   -0.3513   -3.5742    0.0000 O   0  0  0  0  0  0  0  0  0  0  0  0
    0.8820   -1.2875    0.0000 C   0  0  0  0  0  0  0  0  0  0  0  0
    0.8386    0.2119    0.0000 C   0  0  0  0  0  0  0  0  0  0  0  0
    2.1154    0.9992    0.0000 C   0  0  0  0  0  0  0  0  0  0  0  0
    3.4356    0.2871    0.0000 C   0  0  0  0  0  0  0  0  0  0  0  0
    4.7124    1.0744    0.0000 N   0  0  0  0  0  4  0  0  0  0  0  0
    4.6689    2.5738    0.0000 O   0  0  0  0  0  0  0  0  0  0  0  0
    6.0326    0.3623    0.0000 O   0  0  0  0  0  1  0  0  0  0  0  0
    3.4790   -1.2123    0.0000 C   0  0  0  0  0  0  0  0  0  0  0  0
    2.2022   -1.9996    0.0000 C   0  0  0  0  0  0  0  0  0  0  0  0
   -3.1220    2.3481    0.0000 C   0  0  0  0  0  0  0  0  0  0  0  0
   -4.4423    3.0602    0.0000 Cl  0  0  0  0  0  0  0  0  0  0  0  0
   -1.8453    3.1354    0.0000 Cl  0  0  0  0  0  0  0  0  0  0  0  0
  1  2  2  0
  2  3  1  0
  3  4  1  0
  4  5  1  0
  5  6  1  0
  4  7  1  0
  7  8  1  0
  7  9  1  0
  9 10  2  0
 10 11  1  0
 11 12  2  0
 12 13  1  0
 13 14  2  0
 13 15  1  0
 12 16  1  0
 16 17  2  0
  2 18  1  0
 18 19  1  0
 18 20  1  0
 17  9  1  0
M  CHG  2  13   1  15  -1
M  END
> <Identifier>
298.0

> <DILI>
0

$$$$

     RDKit          2D

 10 10  0  0  0  0  0  0  0  0999 V2000
    2.5988    0.9104    0.0000 O   0  0  0  0  0  0  0  0  0  0  0  0
    1.7848   -0.3495    0.0000 C   0  0  0  0  0  0  0  0  0  0  0  0
    2.4688   -1.6844    0.0000 O   0  0  0  0  0  0  0  0  0  0  0  0
    0.2866   -0.2745    0.0000 C   0  0  0  0  0  0  0  0  0  0  0  0
   -0.5274   -1.5344    0.0000 C   0  0  0  0  0  0  0  0  0  0  0  0
   -2.0255   -1.4594    0.0000 C   0  0  0  0  0  0  0  0  0  0  0  0
   -2.7096   -0.1244    0.0000 C   0  0  0  0  0  0  0  0  0  0  0  0
   -1.8956    1.1355    0.0000 C   0  0  0  0  0  0  0  0  0  0  0  0
   -0.3975    1.0604    0.0000 C   0  0  0  0  0  0  0  0  0  0  0  0
    0.4166    2.3203    0.0000 O   0  0  0  0  0  0  0  0  0  0  0  0
  1  2  2  0
  2  3  1  0
  2  4  1  0
  4  5  2  0
  5  6  1  0
  6  7  2  0
  7  8  1  0
  8  9  2  0
  9 10  1  0
  9  4  1  0
M  END
> <Identifier>
338.0

> <DILI>
0

$$$$

     RDKit          2D

 16 16  0  0  0  0  0  0  0  0999 V2000
   -2.3929   -2.1120    0.0000 C   0  0  0  0  0  0  0  0  0  0  0  0
   -1.3203   -1.0635    0.0000 C   0  0  0  0  0  0  0  0  0  0  0  0
   -1.6920    0.3898    0.0000 N   0  0  0  0  0  0  0  0  0  0  0  0
   -3.1363    0.7945    0.0000 C   0  0  0  0  0  0  0  0  0  0  0  0
   -2.7316    2.2388    0.0000 C   0  0  0  0  0  0  0  0  0  0  0  0
   -3.5410   -0.6499    0.0000 C   0  0  0  0  0  0  0  0  0  0  0  0
   -4.5807    1.1992    0.0000 C   0  0  0  0  0  0  0  0  0  0  0  0
    0.1241   -1.4682    0.0000 C   0  0  0  0  0  0  0  0  0  0  0  0
    0.4958   -2.9214    0.0000 O   0  0  0  0  0  0  0  0  0  0  0  0
    1.1968   -0.4197    0.0000 C   0  0  0  0  0  0  0  0  0  0  0  0
    0.8251    1.0336    0.0000 C   0  0  0  0  0  0  0  0  0  0  0  0
    1.8978    2.0821    0.0000 C   0  0  0  0  0  0  0  0  0  0  0  0
    3.3421    1.6774    0.0000 C   0  0  0  0  0  0  0  0  0  0  0  0
    3.7138    0.2241    0.0000 C   0  0  0  0  0  0  0  0  0  0  0  0
    5.1582   -0.1806    0.0000 Cl  0  0  0  0  0  0  0  0  0  0  0  0
    2.6412   -0.8244    0.0000 C   0  0  0  0  0  0  0  0  0  0  0  0
  1  2  1  0
  2  3  1  0
  3  4  1  0
  4  5  1  0
  4  6  1  0
  4  7  1  0
  2  8  1  0
  8  9  2  0
  8 10  1  0
 10 11  2  0
 11 12  1  0
 12 13  2  0
 13 14  1  0
 14 15  1  0
 14 16  2  0
 16 10  1  0
M  END
> <Identifier>
444.0

> <DILI>
0

$$$$

     RDKit          2D

 12 11  0  0  0  0  0  0  0  0999 V2000
    4.5609    0.1026    0.0000 O   0  0  0  0  0  0  0  0  0  0  0  0
    3.1906    0.7126    0.0000 C   0  0  0  0  0  0  0  0  0  0  0  0
    1.9771   -0.1691    0.0000 C   0  0  0  0  0  0  0  0  0  0  0  0
    2.1340   -1.6609    0.0000 O   0  0  0  0  0  0  0  0  0  0  0  0
    0.6067    0.4409    0.0000 C   0  0  0  0  0  0  0  0  0  0  0  0
    0.4498    1.9327    0.0000 O   0  0  0  0  0  0  0  0  0  0  0  0
   -0.6067   -0.4409    0.0000 C   0  0  0  0  0  0  0  0  0  0  0  0
   -0.4498   -1.9327    0.0000 O   0  0  0  0  0  0  0  0  0  0  0  0
   -1.9771    0.1691    0.0000 C   0  0  0  0  0  0  0  0  0  0  0  0
   -2.1340    1.6609    0.0000 O   0  0  0  0  0  0  0  0  0  0  0  0
   -3.1906   -0.7126    0.0000 C   0  0  0  0  0  0  0  0  0  0  0  0
   -4.5609   -0.1026    0.0000 O   0  0  0  0  0  0  0  0  0  0  0  0
  1  2  1  0
  2  3  1  0
  3  4  1  0
  3  5  1  0
  5  6  1  0
  5  7  1  0
  7  8  1  0
  7  9  1  0
  9 10  1  0
  9 11  1  0
 11 12  1  0
M  END
> <Identifier>
453.0

> <DILI>
0

$$$$

     RDKit          2D

  9  8  0  0  0  0  0  0  0  0999 V2000
   -4.8948    0.3895    0.0000 N   0  0  0  0  0  0  0  0  0  0  0  0
   -3.6312   -0.4188    0.0000 C   0  0  0  0  0  0  0  0  0  0  0  0
   -2.2994    0.2714    0.0000 C   0  0  0  0  0  0  0  0  0  0  0  0
   -1.0358   -0.5368    0.0000 C   0  0  0  0  0  0  0  0  0  0  0  0
    0.2960    0.1534    0.0000 C   0  0  0  0  0  0  0  0  0  0  0  0
    1.5596   -0.6549    0.0000 C   0  0  0  0  0  0  0  0  0  0  0  0
    2.8913    0.0353    0.0000 C   0  0  0  0  0  0  0  0  0  0  0  0
    2.9595    1.5338    0.0000 O   0  0  0  0  0  0  0  0  0  0  0  0
    4.1550   -0.7729    0.0000 O   0  0  0  0  0  0  0  0  0  0  0  0
  1  2  1  0
  2  3  1  0
  3  4  1  0
  4  5  1  0
  5  6  1  0
  6  7  1  0
  7  8  2  0
  7  9  1  0
M  END
> <Identifier>
564.0

> <DILI>
0

$$$$

     RDKit          2D

  4  3  0  0  0  0  0  0  0  0999 V2000
   -1.2990   -0.7500    0.0000 C   0  0  0  0  0  0  0  0  0  0  0  0
    0.0000    0.0000    0.0000 S   0  0  0  0  0  0  0  0  0  0  0  0
    1.2990   -0.7500    0.0000 C   0  0  0  0  0  0  0  0  0  0  0  0
    0.0000    1.5000    0.0000 O   0  0  0  0  0  0  0  0  0  0  0  0
  1  2  1  0
  2  3  1  0
  2  4  2  0
M  END
> <Identifier>
679.0

> <DILI>
0

$$$$

     RDKit          2D

 11 11  0  0  0  0  0  0  0  0999 V2000
   -4.7486   -0.0835    0.0000 N   0  0  0  0  0  0  0  0  0  0  0  0
   -3.3132    0.3521    0.0000 C   0  0  0  0  0  0  0  0  0  0  0  0
   -2.2183   -0.6732    0.0000 C   0  0  0  0  0  0  0  0  0  0  0  0
   -0.7829   -0.2376    0.0000 C   0  0  0  0  0  0  0  0  0  0  0  0
   -0.4425    1.2233    0.0000 C   0  0  0  0  0  0  0  0  0  0  0  0
    0.9929    1.6589    0.0000 C   0  0  0  0  0  0  0  0  0  0  0  0
    2.0878    0.6336    0.0000 C   0  0  0  0  0  0  0  0  0  0  0  0
    3.5232    1.0692    0.0000 O   0  0  0  0  0  0  0  0  0  0  0  0
    1.7474   -0.8273    0.0000 C   0  0  0  0  0  0  0  0  0  0  0  0
    2.8423   -1.8525    0.0000 O   0  0  0  0  0  0  0  0  0  0  0  0
    0.3120   -1.2629    0.0000 C   0  0  0  0  0  0  0  0  0  0  0  0
  1  2  1  0
  2  3  1  0
  3  4  1  0
  4  5  2  0
  5  6  1  0
  6  7  2  0
  7  8  1  0
  7  9  1  0
  9 10  1  0
  9 11  2  0
 11  4  1  0
M  END
> <Identifier>
681.0

> <DILI>
0

$$$$

     RDKit          2D

 12 12  0  0  0  0  0  0  0  0999 V2000
    3.0000    0.0000    0.0000 Cl  0  0  0  0  0  0  0  0  0  0  0  0
    1.5000    0.0000    0.0000 C   0  0  0  0  0  0  0  0  0  0  0  0
    0.7500   -1.2990    0.0000 C   0  0  0  0  0  0  0  0  0  0  0  0
    1.5000   -2.5981    0.0000 Cl  0  0  0  0  0  0  0  0  0  0  0  0
   -0.7500   -1.2990    0.0000 C   0  0  0  0  0  0  0  0  0  0  0  0
   -1.5000   -2.5981    0.0000 Cl  0  0  0  0  0  0  0  0  0  0  0  0
   -1.5000    0.0000    0.0000 C   0  0  0  0  0  0  0  0  0  0  0  0
   -3.0000    0.0000    0.0000 Cl  0  0  0  0  0  0  0  0  0  0  0  0
   -0.7500    1.2990    0.0000 C   0  0  0  0  0  0  0  0  0  0  0  0
   -1.5000    2.5981    0.0000 Cl  0  0  0  0  0  0  0  0  0  0  0  0
    0.7500    1.2990    0.0000 C   0  0  0  0  0  0  0  0  0  0  0  0
    1.5000    2.5981    0.0000 Cl  0  0  0  0  0  0  0  0  0  0  0  0
  1  2  1  0
  2  3  1  0
  3  4  1  0
  3  5  1  0
  5  6  1  0
  5  7  1  0
  7  8  1  0
  7  9  1  0
  9 10  1  0
  9 11  1  0
 11 12  1  0
 11  2  1  0
M  END
> <Identifier>
727.0

> <DILI>
0

$$$$

     RDKit          2D

 12 12  0  0  0  0  0  0  0  0999 V2000
    3.0000    0.0000    0.0000 O   0  0  0  0  0  0  0  0  0  0  0  0
    1.5000    0.0000    0.0000 C   0  0  0  0  0  0  0  0  0  0  0  0
    0.7500   -1.2990    0.0000 C   0  0  0  0  0  0  0  0  0  0  0  0
    1.5000   -2.5981    0.0000 O   0  0  0  0  0  0  0  0  0  0  0  0
   -0.7500   -1.2990    0.0000 C   0  0  0  0  0  0  0  0  0  0  0  0
   -1.5000   -2.5981    0.0000 O   0  0  0  0  0  0  0  0  0  0  0  0
   -1.5000    0.0000    0.0000 C   0  0  0  0  0  0  0  0  0  0  0  0
   -3.0000    0.0000    0.0000 O   0  0  0  0  0  0  0  0  0  0  0  0
   -0.7500    1.2990    0.0000 C   0  0  0  0  0  0  0  0  0  0  0  0
   -1.5000    2.5981    0.0000 O   0  0  0  0  0  0  0  0  0  0  0  0
    0.7500    1.2990    0.0000 C   0  0  0  0  0  0  0  0  0  0  0  0
    1.5000    2.5981    0.0000 O   0  0  0  0  0  0  0  0  0  0  0  0
  1  2  1  0
  2  3  1  0
  3  4  1  0
  3  5  1  0
  5  6  1  0
  5  7  1  0
  7  8  1  0
  7  9  1  0
  9 10  1  0
  9 11  1  0
 11 12  1  0
 11  2  1  0
M  END
> <Identifier>
892.0

> <DILI>
0

$$$$

     RDKit          2D

  9  9  0  0  0  0  0  0  0  0999 V2000
    2.5833    1.2990    0.0000 O   0  0  0  0  0  0  0  0  0  0  0  0
    1.8333    0.0000    0.0000 C   0  0  0  0  0  0  0  0  0  0  0  0
    2.5833   -1.2990    0.0000 O   0  0  0  0  0  0  0  0  0  0  0  0
    0.3333   -0.0000    0.0000 C   0  0  0  0  0  0  0  0  0  0  0  0
   -0.4167   -1.2990    0.0000 C   0  0  0  0  0  0  0  0  0  0  0  0
   -1.9167   -1.2990    0.0000 C   0  0  0  0  0  0  0  0  0  0  0  0
   -2.6667    0.0000    0.0000 C   0  0  0  0  0  0  0  0  0  0  0  0
   -1.9167    1.2990    0.0000 N   0  0  0  0  0  0  0  0  0  0  0  0
   -0.4167    1.2990    0.0000 C   0  0  0  0  0  0  0  0  0  0  0  0
  1  2  2  0
  2  3  1  0
  2  4  1  0
  4  5  2  0
  5  6  1  0
  6  7  2  0
  7  8  1  0
  8  9  2  0
  9  4  1  0
M  END
> <Identifier>
938.0

> <DILI>
1

$$$$

     RDKit          2D

 10 10  0  0  0  0  0  0  0  0999 V2000
    3.7500    0.0000    0.0000 N   0  0  0  0  0  0  0  0  0  0  0  0
    2.2500   -0.0000    0.0000 C   0  0  0  0  0  0  0  0  0  0  0  0
    1.5000   -1.2990    0.0000 C   0  0  0  0  0  0  0  0  0  0  0  0
   -0.0000   -1.2990    0.0000 C   0  0  0  0  0  0  0  0  0  0  0  0
   -0.7500    0.0000    0.0000 C   0  0  0  0  0  0  0  0  0  0  0  0
   -2.2500    0.0000    0.0000 C   0  0  0  0  0  0  0  0  0  0  0  0
   -3.0000   -1.2990    0.0000 O   0  0  0  0  0  0  0  0  0  0  0  0
   -3.0000    1.2990    0.0000 O   0  0  0  0  0  0  0  0  0  0  0  0
    0.0000    1.2990    0.0000 C   0  0  0  0  0  0  0  0  0  0  0  0
    1.5000    1.2990    0.0000 C   0  0  0  0  0  0  0  0  0  0  0  0
  1  2  1  0
  2  3  2  0
  3  4  1  0
  4  5  2  0
  5  6  1  0
  6  7  2  0
  6  8  1  0
  5  9  1  0
  9 10  2  0
 10  2  1  0
M  END
> <Identifier>
978.0

> <DILI>
0

$$$$

     RDKit          2D

 15 14  0  0  0  0  0  0  0  0999 V2000
   -3.7134    1.5254    0.0000 C   0  0  0  0  0  0  0  0  0  0  0  0
   -3.0254    0.1926    0.0000 C   0  0  0  0  0  0  0  0  0  0  0  0
   -2.3373   -1.1403    0.0000 C   0  0  0  0  0  0  0  0  0  0  0  0
   -4.3583   -0.4955    0.0000 C   0  0  0  0  0  0  0  0  0  0  0  0
   -4.4288   -1.9938    0.0000 O   0  0  0  0  0  0  0  0  0  0  0  0
   -1.6925    0.8806    0.0000 C   0  0  0  0  0  0  0  0  0  0  0  0
   -1.6219    2.3789    0.0000 O   0  0  0  0  0  0  0  0  0  0  0  0
   -0.4302    0.0703    0.0000 C   0  0  0  0  0  0  0  0  0  0  0  0
   -0.5008   -1.4280    0.0000 O   0  0  0  0  0  0  0  0  0  0  0  0
    0.9027    0.7584    0.0000 N   0  0  0  0  0  0  0  0  0  0  0  0
    2.1650   -0.0519    0.0000 C   0  0  0  0  0  0  0  0  0  0  0  0
    3.4979    0.6361    0.0000 C   0  0  0  0  0  0  0  0  0  0  0  0
    4.7602   -0.1742    0.0000 C   0  0  0  0  0  0  0  0  0  0  0  0
    4.6896   -1.6725    0.0000 O   0  0  0  0  0  0  0  0  0  0  0  0
    6.0931    0.5139    0.0000 O   0  0  0  0  0  0  0  0  0  0  0  0
  1  2  1  0
  2  3  1  0
  2  4  1  0
  4  5  1  0
  2  6  1  0
  6  7  1  0
  6  8  1  0
  8  9  2  0
  8 10  1  0
 10 11  1  0
 11 12  1  0
 12 13  1  0
 13 14  2  0
 13 15  1  0
M  END
> <Identifier>
988.0

> <DILI>
0

$$$$

     RDKit          2D

  9  9  0  0  0  0  0  0  0  0999 V2000
    2.5833   -1.2990    0.0000 N   0  0  0  0  0  0  0  0  0  0  0  0
    1.8333    0.0000    0.0000 C   0  0  0  0  0  0  0  0  0  0  0  0
    2.5833    1.2990    0.0000 O   0  0  0  0  0  0  0  0  0  0  0  0
    0.3333   -0.0000    0.0000 C   0  0  0  0  0  0  0  0  0  0  0  0
   -0.4167   -1.2990    0.0000 C   0  0  0  0  0  0  0  0  0  0  0  0
   -1.9167   -1.2990    0.0000 N   0  0  0  0  0  0  0  0  0  0  0  0
   -2.6667    0.0000    0.0000 C   0  0  0  0  0  0  0  0  0  0  0  0
   -1.9167    1.2990    0.0000 C   0  0  0  0  0  0  0  0  0  0  0  0
   -0.4167    1.2990    0.0000 N   0  0  0  0  0  0  0  0  0  0  0  0
  1  2  1  0
  2  3  2  0
  2  4  1  0
  4  5  2  0
  5  6  1  0
  6  7  2  0
  7  8  1  0
  8  9  2  0
  9  4  1  0
M  END
> <Identifier>
1046.0

> <DILI>
1

$$$$

     RDKit          2D

 12 12  0  0  0  0  0  0  0  0999 V2000
   -3.4843   -0.0065    0.0000 C   0  0  0  0  0  0  0  0  0  0  0  0
   -2.0321    0.3690    0.0000 C   0  0  0  0  0  0  0  0  0  0  0  0
   -1.6312    1.8145    0.0000 N   0  0  0  0  0  0  0  0  0  0  0  0
   -0.1790    2.1900    0.0000 C   0  0  0  0  0  0  0  0  0  0  0  0
    0.8724    1.1201    0.0000 C   0  0  0  0  0  0  0  0  0  0  0  0
    2.3246    1.4956    0.0000 C   0  0  0  0  0  0  0  0  0  0  0  0
    3.3759    0.4257    0.0000 O   0  0  0  0  0  0  0  0  0  0  0  0
    0.4715   -0.3253    0.0000 C   0  0  0  0  0  0  0  0  0  0  0  0
    1.5228   -1.3952    0.0000 C   0  0  0  0  0  0  0  0  0  0  0  0
    1.1219   -2.8407    0.0000 O   0  0  0  0  0  0  0  0  0  0  0  0
   -0.9808   -0.7009    0.0000 C   0  0  0  0  0  0  0  0  0  0  0  0
   -1.3816   -2.1463    0.0000 O   0  0  0  0  0  0  0  0  0  0  0  0
  1  2  1  0
  2  3  2  0
  3  4  1  0
  4  5  2  0
  5  6  1  0
  6  7  1  0
  5  8  1  0
  8  9  1  0
  9 10  1  0
  8 11  2  0
 11 12  1  0
 11  2  1  0
M  END
> <Identifier>
1054.0

> <DILI>
0

$$$$

     RDKit          2D

 18 19  0  0  0  0  0  0  0  0999 V2000
   -4.4194   -2.7457    0.0000 C   0  0  0  0  0  0  0  0  0  0  0  0
   -3.4740   -1.5811    0.0000 C   0  0  0  0  0  0  0  0  0  0  0  0
   -1.9928   -1.8176    0.0000 N   0  0  0  0  0  0  0  0  0  0  0  0
   -1.0474   -0.6531    0.0000 C   0  0  0  0  0  0  0  0  0  0  0  0
   -1.5832    0.7480    0.0000 C   0  0  0  0  0  0  0  0  0  0  0  0
   -0.6377    1.9125    0.0000 C   0  0  0  0  0  0  0  0  0  0  0  0
    0.8435    1.6760    0.0000 N   0  0  0  0  0  4  0  0  0  0  0  0
    1.9055    2.7354    0.0000 C   0  0  0  0  0  0  0  0  0  0  0  0
    3.2411    2.0527    0.0000 S   0  0  0  0  0  0  0  0  0  0  0  0
    3.0046    0.5715    0.0000 C   0  0  0  0  0  0  0  0  0  0  0  0
    4.0640   -0.4905    0.0000 C   0  0  0  0  0  0  0  0  0  0  0  0
    3.6740   -1.9389    0.0000 C   0  0  0  0  0  0  0  0  0  0  0  0
    4.7333   -3.0009    0.0000 O   0  0  0  0  0  0  0  0  0  0  0  0
    1.5228    0.3387    0.0000 C   0  0  0  0  0  0  0  0  0  0  0  0
    0.8402   -0.9970    0.0000 C   0  0  0  0  0  0  0  0  0  0  0  0
   -3.0644    0.9845    0.0000 C   0  0  0  0  0  0  0  0  0  0  0  0
   -3.6002    2.3855    0.0000 N   0  0  0  0  0  0  0  0  0  0  0  0
   -4.0098   -0.1801    0.0000 N   0  0  0  0  0  0  0  0  0  0  0  0
  1  2  1  0
  2  3  2  0
  3  4  1  0
  4  5  2  0
  5  6  1  0
  6  7  1  0
  7  8  2  0
  8  9  1  0
  9 10  1  0
 10 11  1  0
 11 12  1  0
 12 13  1  0
 10 14  2  0
 14 15  1  0
  5 16  1  0
 16 17  1  0
 16 18  2  0
 18  2  1  0
 14  7  1  0
M  CHG  1   7   1
M  END
> <Identifier>
1130.0

> <DILI>
0

$$$$

     RDKit          2D

 21 25  0  0  0  0  0  0  0  0999 V2000
   -5.8466    0.5046    0.0000 C   0  0  0  0  0  0  0  0  0  0  0  0
   -4.3626    0.7231    0.0000 C   0  0  0  0  0  0  0  0  0  0  0  0
   -3.8098    2.1175    0.0000 C   0  0  0  0  0  0  0  0  0  0  0  0
   -2.3258    2.3360    0.0000 C   0  0  0  0  0  0  0  0  0  0  0  0
   -1.3946    1.1600    0.0000 C   0  0  0  0  0  0  0  0  0  0  0  0
    0.0894    1.3785    0.0000 C   0  0  0  0  0  0  0  0  0  0  0  0
    1.0207    0.2026    0.0000 C   0  0  0  0  0  0  0  0  0  0  0  0
    0.4679   -1.1919    0.0000 C   0  0  0  0  0  0  0  0  0  0  0  0
    1.3991   -2.3678    0.0000 C   0  0  0  0  0  0  0  0  0  0  0  0
    2.8831   -2.1493    0.0000 C   0  0  0  0  0  0  0  0  0  0  0  0
    3.4359   -0.7549    0.0000 C   0  0  0  0  0  0  0  0  0  0  0  0
    4.9199   -0.5364    0.0000 C   0  0  0  0  0  0  0  0  0  0  0  0
    5.4727    0.8580    0.0000 C   0  0  0  0  0  0  0  0  0  0  0  0
    4.5415    2.0339    0.0000 C   0  0  0  0  0  0  0  0  0  0  0  0
    3.0574    1.8155    0.0000 C   0  0  0  0  0  0  0  0  0  0  0  0
    2.5047    0.4210    0.0000 C   0  0  0  0  0  0  0  0  0  0  0  0
   -1.0161   -1.4104    0.0000 C   0  0  0  0  0  0  0  0  0  0  0  0
   -1.9474   -0.2344    0.0000 C   0  0  0  0  0  0  0  0  0  0  0  0
   -3.4314   -0.4529    0.0000 C   0  0  0  0  0  0  0  0  0  0  0  0
   -3.5262   -1.9499    0.0000 C   0  0  0  0  0  0  0  0  0  0  0  0
   -2.1318   -2.5027    0.0000 C   0  0  0  0  0  0  0  0  0  0  0  0
  1  2  1  0
  2  3  2  0
  3  4  1  0
  4  5  2  0
  5  6  1  0
  6  7  2  0
  7  8  1  0
  8  9  1  0
  9 10  2  0
 10 11  1  0
 11 12  2  0
 12 13  1  0
 13 14  2  0
 14 15  1  0
 15 16  2  0
  8 17  2  0
 17 18  1  0
 18 19  2  0
 19 20  1  0
 20 21  1  0
 19  2  1  0
 18  5  1  0
 16  7  1  0
 21 17  1  0
 16 11  1  0
M  END
> <Identifier>
1674.0

> <DILI>
1

$$$$

     RDKit          2D

 19 21  0  0  0  0  0  0  0  0999 V2000
   -4.6991   -0.0217    0.0000 O   0  0  0  0  0  0  0  0  0  0  0  0
   -3.2483   -0.4030    0.0000 C   0  0  0  0  0  0  0  0  0  0  0  0
   -2.7041   -1.8008    0.0000 N   0  0  0  0  0  0  0  0  0  0  0  0
   -1.2065   -1.7151    0.0000 C   0  0  0  0  0  0  0  0  0  0  0  0
   -0.2570   -2.8763    0.0000 O   0  0  0  0  0  0  0  0  0  0  0  0
   -0.8252   -0.2644    0.0000 C   0  0  0  0  0  0  0  0  0  0  0  0
   -0.1507    1.0754    0.0000 C   0  0  0  0  0  0  0  0  0  0  0  0
    1.3469    1.1611    0.0000 C   0  0  0  0  0  0  0  0  0  0  0  0
    2.0215    2.5008    0.0000 C   0  0  0  0  0  0  0  0  0  0  0  0
    1.1985    3.7549    0.0000 C   0  0  0  0  0  0  0  0  0  0  0  0
   -0.2990    3.6692    0.0000 C   0  0  0  0  0  0  0  0  0  0  0  0
   -0.9736    2.3295    0.0000 C   0  0  0  0  0  0  0  0  0  0  0  0
    0.5777   -0.7952    0.0000 C   0  0  0  0  0  0  0  0  0  0  0  0
    0.8194   -2.2756    0.0000 C   0  0  0  0  0  0  0  0  0  0  0  0
    2.2224   -2.8064    0.0000 C   0  0  0  0  0  0  0  0  0  0  0  0
    3.3836   -1.8569    0.0000 C   0  0  0  0  0  0  0  0  0  0  0  0
    3.1418   -0.3765    0.0000 C   0  0  0  0  0  0  0  0  0  0  0  0
    1.7389    0.1543    0.0000 C   0  0  0  0  0  0  0  0  0  0  0  0
   -2.0871    0.5466    0.0000 N   0  0  0  0  0  0  0  0  0  0  0  0
  1  2  2  0
  2  3  1  0
  3  4  1  0
  4  5  2  0
  4  6  1  0
  6  7  1  0
  7  8  2  0
  8  9  1  0
  9 10  2  0
 10 11  1  0
 11 12  2  0
  6 13  1  0
 13 14  2  0
 14 15  1  0
 15 16  2  0
 16 17  1  0
 17 18  2  0
  6 19  1  0
 19  2  1  0
 12  7  1  0
 18 13  1  0
M  END
> <Identifier>
1775.0

> <DILI>
1

$$$$

     RDKit          2D

 11 12  0  0  0  0  0  0  0  0999 V2000
   -1.7578    2.3964    0.0000 O   0  0  0  0  0  0  0  0  0  0  0  0
   -1.4243    0.9340    0.0000 C   0  0  0  0  0  0  0  0  0  0  0  0
   -2.5240   -0.0861    0.0000 C   0  0  0  0  0  0  0  0  0  0  0  0
   -2.1905   -1.5485    0.0000 C   0  0  0  0  0  0  0  0  0  0  0  0
   -0.7572   -1.9909    0.0000 C   0  0  0  0  0  0  0  0  0  0  0  0
    0.3425   -0.9709    0.0000 C   0  0  0  0  0  0  0  0  0  0  0  0
    1.7758   -1.4133    0.0000 C   0  0  0  0  0  0  0  0  0  0  0  0
    2.8756   -0.3932    0.0000 C   0  0  0  0  0  0  0  0  0  0  0  0
    2.5421    1.0692    0.0000 C   0  0  0  0  0  0  0  0  0  0  0  0
    1.1088    1.5116    0.0000 N   0  0  0  0  0  0  0  0  0  0  0  0
    0.0090    0.4916    0.0000 C   0  0  0  0  0  0  0  0  0  0  0  0
  1  2  1  0
  2  3  2  0
  3  4  1  0
  4  5  2  0
  5  6  1  0
  6  7  2  0
  7  8  1  0
  8  9  2  0
  9 10  1  0
 10 11  2  0
 11  2  1  0
 11  6  1  0
M  END
> <Identifier>
1923.0

> <DILI>
1

$$$$

     RDKit          2D

 15 17  0  0  0  0  0  0  0  0999 V2000
    0.0000    2.8000    0.0000 N   0  0  0  0  0  0  0  0  0  0  0  0
   -0.0000    1.3000    0.0000 C   0  0  0  0  0  0  0  0  0  0  0  0
   -1.2990    0.5500    0.0000 C   0  0  0  0  0  0  0  0  0  0  0  0
   -1.2990   -0.9500    0.0000 C   0  0  0  0  0  0  0  0  0  0  0  0
   -0.0000   -1.7000    0.0000 N   0  0  0  0  0  0  0  0  0  0  0  0
    1.2990   -0.9500    0.0000 C   0  0  0  0  0  0  0  0  0  0  0  0
    2.5981   -1.7000    0.0000 C   0  0  0  0  0  0  0  0  0  0  0  0
    3.8971   -0.9500    0.0000 C   0  0  0  0  0  0  0  0  0  0  0  0
    3.8971    0.5500    0.0000 C   0  0  0  0  0  0  0  0  0  0  0  0
    2.5981    1.3000    0.0000 C   0  0  0  0  0  0  0  0  0  0  0  0
    1.2990    0.5500    0.0000 C   0  0  0  0  0  0  0  0  0  0  0  0
   -2.5981   -1.7000    0.0000 C   0  0  0  0  0  0  0  0  0  0  0  0
   -3.8971   -0.9500    0.0000 C   0  0  0  0  0  0  0  0  0  0  0  0
   -3.8971    0.5500    0.0000 C   0  0  0  0  0  0  0  0  0  0  0  0
   -2.5981    1.3000    0.0000 C   0  0  0  0  0  0  0  0  0  0  0  0
  1  2  1  0
  2  3  2  0
  3  4  1  0
  4  5  2  0
  5  6  1  0
  6  7  2  0
  7  8  1  0
  8  9  2  0
  9 10  1  0
 10 11  2  0
  4 12  1  0
 12 13  1  0
 13 14  1  0
 14 15  1  0
 11  2  1  0
 15  3  1  0
 11  6  1  0
M  END
> <Identifier>
1935.0

> <DILI>
0

$$$$

     RDKit          2D

 13 13  0  0  0  0  0  0  0  0999 V2000
    4.7053   -0.5461    0.0000 C   0  0  0  0  0  0  0  0  0  0  0  0
    3.2069   -0.4773    0.0000 C   0  0  0  0  0  0  0  0  0  0  0  0
    2.3980   -1.7405    0.0000 O   0  0  0  0  0  0  0  0  0  0  0  0
    2.5173    0.8549    0.0000 N   0  0  0  0  0  0  0  0  0  0  0  0
    1.0189    0.9238    0.0000 C   0  0  0  0  0  0  0  0  0  0  0  0
    0.1939    2.1765    0.0000 N   0  0  0  0  0  0  0  0  0  0  0  0
   -1.2524    1.7790    0.0000 N   0  0  0  0  0  0  0  0  0  0  0  0
   -1.3213    0.2806    0.0000 C   0  0  0  0  0  0  0  0  0  0  0  0
   -2.5741   -0.5444    0.0000 S   0  0  0  0  0  0  0  0  0  0  0  0
   -3.8268   -1.3695    0.0000 N   0  0  0  0  0  0  0  0  0  0  0  0
   -3.3991    0.7083    0.0000 O   0  0  0  0  0  0  0  0  0  0  0  0
   -1.7491   -1.7972    0.0000 O   0  0  0  0  0  0  0  0  0  0  0  0
    0.0824   -0.2480    0.0000 S   0  0  0  0  0  0  0  0  0  0  0  0
  1  2  1  0
  2  3  2  0
  2  4  1  0
  4  5  1  0
  5  6  2  0
  6  7  1  0
  7  8  2  0
  8  9  1  0
  9 10  1  0
  9 11  2  0
  9 12  2  0
  8 13  1  0
 13  5  1  0
M  END
> <Identifier>
1986.0

> <DILI>
1

$$$$

     RDKit          2D

 22 23  0  0  0  0  0  0  0  0999 V2000
    6.4449   -2.4258    0.0000 C   0  0  0  0  0  0  0  0  0  0  0  0
    6.2006   -0.9459    0.0000 C   0  0  0  0  0  0  0  0  0  0  0  0
    7.3602    0.0057    0.0000 O   0  0  0  0  0  0  0  0  0  0  0  0
    4.7968   -0.4175    0.0000 C   0  0  0  0  0  0  0  0  0  0  0  0
    3.6372   -1.3690    0.0000 C   0  0  0  0  0  0  0  0  0  0  0  0
    2.2334   -0.8406    0.0000 C   0  0  0  0  0  0  0  0  0  0  0  0
    1.9891    0.6393    0.0000 C   0  0  0  0  0  0  0  0  0  0  0  0
    0.5852    1.1677    0.0000 S   0  0  0  0  0  0  0  0  0  0  0  0
    1.1136    2.5716    0.0000 O   0  0  0  0  0  0  0  0  0  0  0  0
    0.0568   -0.2361    0.0000 O   0  0  0  0  0  0  0  0  0  0  0  0
   -0.8186    1.6961    0.0000 N   0  0  0  0  0  0  0  0  0  0  0  0
   -1.9782    0.7446    0.0000 C   0  0  0  0  0  0  0  0  0  0  0  0
   -1.7338   -0.7354    0.0000 O   0  0  0  0  0  0  0  0  0  0  0  0
   -3.3820    1.2730    0.0000 N   0  0  0  0  0  0  0  0  0  0  0  0
   -4.5415    0.3214    0.0000 C   0  0  0  0  0  0  0  0  0  0  0  0
   -5.9454    0.8498    0.0000 C   0  0  0  0  0  0  0  0  0  0  0  0
   -7.1049   -0.1018    0.0000 C   0  0  0  0  0  0  0  0  0  0  0  0
   -6.8606   -1.5818    0.0000 C   0  0  0  0  0  0  0  0  0  0  0  0
   -5.4567   -2.1102    0.0000 C   0  0  0  0  0  0  0  0  0  0  0  0
   -4.2972   -1.1586    0.0000 C   0  0  0  0  0  0  0  0  0  0  0  0
    3.1486    1.5909    0.0000 C   0  0  0  0  0  0  0  0  0  0  0  0
    4.5525    1.0625    0.0000 C   0  0  0  0  0  0  0  0  0  0  0  0
  1  2  1  0
  2  3  2  0
  2  4  1  0
  4  5  2  0
  5  6  1  0
  6  7  2  0
  7  8  1  0
  8  9  2  0
  8 10  2  0
  8 11  1  0
 11 12  1  0
 12 13  2  0
 12 14  1  0
 14 15  1  0
 15 16  1  0
 16 17  1  0
 17 18  1  0
 18 19  1  0
 19 20  1  0
  7 21  1  0
 21 22  2  0
 22  4  1  0
 20 15  1  0
M  END
> <Identifier>
1989.0

> <DILI>
1

$$$$

     RDKit          2D

 90 96  0  0  0  0  0  0  0  0999 V2000
   -0.0997   -8.1589    0.0000 C   0  0  0  0  0  0  0  0  0  0  0  0
   -0.8586   -6.8651    0.0000 C   0  0  0  0  0  0  0  0  0  0  0  0
   -0.1176   -5.5609    0.0000 C   0  0  0  0  0  0  0  0  0  0  0  0
    1.3824   -5.5506    0.0000 O   0  0  0  0  0  0  0  0  0  0  0  0
    2.1235   -4.2464    0.0000 C   0  0  0  0  0  0  0  0  0  0  0  0
    3.6234   -4.2361    0.0000 C   0  0  0  0  0  0  0  0  0  0  0  0
    4.3823   -5.5299    0.0000 C   0  0  0  0  0  0  0  0  0  0  0  0
    4.3645   -2.9319    0.0000 C   0  0  0  0  0  0  0  0  0  0  0  0
    3.6056   -1.6381    0.0000 C   0  0  0  0  0  0  0  0  0  0  0  0
    2.1056   -1.6484    0.0000 C   0  0  0  0  0  0  0  0  0  0  0  0
    1.3467   -0.3545    0.0000 C   0  0  0  0  0  0  0  0  0  0  0  0
   -0.1533   -0.3649    0.0000 O   0  0  0  0  0  0  0  0  0  0  0  0
    2.0877    0.9496    0.0000 N   0  0  0  0  0  0  0  0  0  0  0  0
    3.5877    0.9599    0.0000 C   0  0  0  0  0  0  0  0  0  0  0  0
    3.8702    2.4331    0.0000 C   0  0  0  0  0  0  0  0  0  0  0  0
    2.4805    2.9976    0.0000 O   0  0  0  0  0  0  0  0  0  0  0  0
    4.6950    3.6860    0.0000 N   0  0  0  0  0  0  0  0  0  0  0  0
    5.9364    4.5279    0.0000 C   0  0  0  0  0  0  0  0  0  0  0  0
    5.3529    5.9097    0.0000 C   0  0  0  0  0  0  0  0  0  0  0  0
    6.2578    7.1060    0.0000 C   0  0  0  0  0  0  0  0  0  0  0  0
    3.8644    6.0953    0.0000 C   0  0  0  0  0  0  0  0  0  0  0  0
    7.4055    4.8306    0.0000 C   0  0  0  0  0  0  0  0  0  0  0  0
    7.3952    6.3306    0.0000 O   0  0  0  0  0  0  0  0  0  0  0  0
    8.8787    4.5481    0.0000 N   0  0  0  0  0  0  0  0  0  0  0  0
    9.2759    5.9946    0.0000 C   0  0  0  0  0  0  0  0  0  0  0  0
   10.7743    6.0638    0.0000 C   0  0  0  0  0  0  0  0  0  0  0  0
   11.3032    4.6601    0.0000 C   0  0  0  0  0  0  0  0  0  0  0  0
   10.1316    3.7234    0.0000 C   0  0  0  0  0  0  0  0  0  0  0  0
   10.9735    2.4819    0.0000 C   0  0  0  0  0  0  0  0  0  0  0  0
   12.3554    3.0655    0.0000 O   0  0  0  0  0  0  0  0  0  0  0  0
   11.2763    1.0128    0.0000 N   0  0  0  0  0  0  0  0  0  0  0  0
   12.7762    1.0231    0.0000 C   0  0  0  0  0  0  0  0  0  0  0  0
   10.9937   -0.4604    0.0000 C   0  0  0  0  0  0  0  0  0  0  0  0
   10.1690   -1.7133    0.0000 C   0  0  0  0  0  0  0  0  0  0  0  0
   11.2369   -2.7666    0.0000 O   0  0  0  0  0  0  0  0  0  0  0  0
    8.9275   -2.5552    0.0000 N   0  0  0  0  0  0  0  0  0  0  0  0
    9.5111   -3.9370    0.0000 C   0  0  0  0  0  0  0  0  0  0  0  0
    7.4584   -2.8579    0.0000 C   0  0  0  0  0  0  0  0  0  0  0  0
    7.4687   -4.3579    0.0000 C   0  0  0  0  0  0  0  0  0  0  0  0
    6.1749   -5.1168    0.0000 C   0  0  0  0  0  0  0  0  0  0  0  0
    8.7729   -5.0989    0.0000 C   0  0  0  0  0  0  0  0  0  0  0  0
    5.9853   -2.5754    0.0000 C   0  0  0  0  0  0  0  0  0  0  0  0
    5.4208   -3.9651    0.0000 O   0  0  0  0  0  0  0  0  0  0  0  0
    4.7323   -1.7506    0.0000 O   0  0  0  0  0  0  0  0  0  0  0  0
    3.8904   -0.5092    0.0000 C   0  0  0  0  0  0  0  0  0  0  0  0
    2.8108   -1.3197    0.0000 C   0  0  0  0  0  0  0  0  0  0  0  0
    1.3645   -2.9526    0.0000 C   0  0  0  0  0  0  0  0  0  0  0  0
   -0.1354   -2.9629    0.0000 N   0  0  0  0  0  0  0  0  0  0  0  0
   -0.8765   -4.2670    0.0000 C   0  0  0  0  0  0  0  0  0  0  0  0
   -2.3764   -4.2774    0.0000 C   0  0  0  0  0  0  0  0  0  0  0  0
   -3.1354   -2.9835    0.0000 C   0  0  0  0  0  0  0  0  0  0  0  0
   -2.2409   -1.7794    0.0000 O   0  0  0  0  0  0  0  0  0  0  0  0
   -4.6353   -2.9938    0.0000 N   0  0  0  0  0  0  0  0  0  0  0  0
   -5.3942   -1.7000    0.0000 C   0  0  0  0  0  0  0  0  0  0  0  0
   -6.8113   -2.1919    0.0000 C   0  0  0  0  0  0  0  0  0  0  0  0
   -6.6053   -3.6777    0.0000 O   0  0  0  0  0  0  0  0  0  0  0  0
   -8.3087   -2.1041    0.0000 N   0  0  0  0  0  0  0  0  0  0  0  0
   -9.6585   -1.4499    0.0000 C   0  0  0  0  0  0  0  0  0  0  0  0
  -10.5635   -2.6462    0.0000 C   0  0  0  0  0  0  0  0  0  0  0  0
  -12.0520   -2.4606    0.0000 C   0  0  0  0  0  0  0  0  0  0  0  0
   -9.9799   -4.0280    0.0000 C   0  0  0  0  0  0  0  0  0  0  0  0
  -10.6553   -0.3290    0.0000 C   0  0  0  0  0  0  0  0  0  0  0  0
  -11.9491   -1.0879    0.0000 O   0  0  0  0  0  0  0  0  0  0  0  0
  -11.1472    1.0881    0.0000 N   0  0  0  0  0  0  0  0  0  0  0  0
  -12.5985    0.7089    0.0000 C   0  0  0  0  0  0  0  0  0  0  0  0
  -13.4076    1.9719    0.0000 C   0  0  0  0  0  0  0  0  0  0  0  0
  -12.4564    3.1317    0.0000 C   0  0  0  0  0  0  0  0  0  0  0  0
  -11.0594    2.5855    0.0000 C   0  0  0  0  0  0  0  0  0  0  0  0
  -10.4052    3.9353    0.0000 C   0  0  0  0  0  0  0  0  0  0  0  0
  -11.6015    4.8403    0.0000 O   0  0  0  0  0  0  0  0  0  0  0  0
   -9.2843    4.9321    0.0000 N   0  0  0  0  0  0  0  0  0  0  0  0
  -10.0432    6.2259    0.0000 C   0  0  0  0  0  0  0  0  0  0  0  0
   -7.8673    5.4240    0.0000 C   0  0  0  0  0  0  0  0  0  0  0  0
   -6.3698    5.3362    0.0000 C   0  0  0  0  0  0  0  0  0  0  0  0
   -5.9916    6.7877    0.0000 O   0  0  0  0  0  0  0  0  0  0  0  0
   -5.0200    4.6820    0.0000 N   0  0  0  0  0  0  0  0  0  0  0  0
   -4.1150    5.8783    0.0000 C   0  0  0  0  0  0  0  0  0  0  0  0
   -4.0232    3.5611    0.0000 C   0  0  0  0  0  0  0  0  0  0  0  0
   -2.7294    4.3200    0.0000 C   0  0  0  0  0  0  0  0  0  0  0  0
   -1.4252    3.5790    0.0000 C   0  0  0  0  0  0  0  0  0  0  0  0
   -2.7397    5.8200    0.0000 C   0  0  0  0  0  0  0  0  0  0  0  0
   -3.5313    2.1441    0.0000 C   0  0  0  0  0  0  0  0  0  0  0  0
   -2.0455    2.3501    0.0000 O   0  0  0  0  0  0  0  0  0  0  0  0
   -3.6191    0.6466    0.0000 O   0  0  0  0  0  0  0  0  0  0  0  0
   -4.2733   -0.7032    0.0000 C   0  0  0  0  0  0  0  0  0  0  0  0
   -2.9756   -1.4556    0.0000 C   0  0  0  0  0  0  0  0  0  0  0  0
   -3.1175   -5.5815    0.0000 C   0  0  0  0  0  0  0  0  0  0  0  0
   -4.6175   -5.5918    0.0000 N   0  0  0  0  0  0  0  0  0  0  0  0
   -2.3586   -6.8754    0.0000 C   0  0  0  0  0  0  0  0  0  0  0  0
   -3.0996   -8.1795    0.0000 O   0  0  0  0  0  0  0  0  0  0  0  0
  1  2  1  0
  2  3  2  0
  3  4  1  0
  4  5  1  0
  5  6  2  0
  6  7  1  0
  6  8  1  0
  8  9  2  0
  9 10  1  0
 10 11  1  0
 11 12  2  0
 11 13  1  0
 13 14  1  0
 14 15  1  0
 15 16  2  0
 15 17  1  0
 17 18  1  0
 18 19  1  0
 19 20  1  0
 19 21  1  0
 18 22  1  0
 22 23  2  0
 22 24  1  0
 24 25  1  0
 25 26  1  0
 26 27  1  0
 27 28  1  0
 28 29  1  0
 29 30  2  0
 29 31  1  0
 31 32  1  0
 31 33  1  0
 33 34  1  0
 34 35  2  0
 34 36  1  0
 36 37  1  0
 36 38  1  0
 38 39  1  0
 39 40  1  0
 39 41  1  0
 38 42  1  0
 42 43  2  0
 42 44  1  0
 44 45  1  0
 45 46  1  0
 10 47  2  0
 47 48  1  0
 48 49  2  0
 49 50  1  0
 50 51  1  0
 51 52  2  0
 51 53  1  0
 53 54  1  0
 54 55  1  0
 55 56  2  0
 55 57  1  0
 57 58  1  0
 58 59  1  0
 59 60  1  0
 59 61  1  0
 58 62  1  0
 62 63  2  0
 62 64  1  0
 64 65  1  0
 65 66  1  0
 66 67  1  0
 67 68  1  0
 68 69  1  0
 69 70  2  0
 69 71  1  0
 71 72  1  0
 71 73  1  0
 73 74  1  0
 74 75  2  0
 74 76  1  0
 76 77  1  0
 76 78  1  0
 78 79  1  0
 79 80  1  0
 79 81  1  0
 78 82  1  0
 82 83  2  0
 82 84  1  0
 84 85  1  0
 85 86  1  0
 50 87  2  0
 87 88  1  0
 87 89  1  0
 89 90  2  0
 89  2  1  0
 49  3  1  0
 85 54  1  0
 47  5  1  0
 68 64  1  0
 45 14  1  0
 28 24  1  0
M  END
> <Identifier>
2019.0

> <DILI>
1

$$$$

     RDKit          2D

 18 19  0  0  0  0  0  0  0  0999 V2000
   -7.7225   -0.5257    0.0000 C   0  0  0  0  0  0  0  0  0  0  0  0
   -6.3813   -1.1973    0.0000 C   0  0  0  0  0  0  0  0  0  0  0  0
   -5.1290   -0.3717    0.0000 C   0  0  0  0  0  0  0  0  0  0  0  0
   -3.7878   -1.0433    0.0000 S   0  0  0  0  0  0  0  0  0  0  0  0
   -2.5355   -0.2177    0.0000 C   0  0  0  0  0  0  0  0  0  0  0  0
   -2.6244    1.2797    0.0000 C   0  0  0  0  0  0  0  0  0  0  0  0
   -1.3721    2.1054    0.0000 C   0  0  0  0  0  0  0  0  0  0  0  0
   -0.0309    1.4337    0.0000 C   0  0  0  0  0  0  0  0  0  0  0  0
    1.3657    1.9810    0.0000 N   0  0  0  0  0  0  0  0  0  0  0  0
    2.3177    0.8218    0.0000 C   0  0  0  0  0  0  0  0  0  0  0  0
    3.8151    0.9108    0.0000 N   0  0  0  0  0  0  0  0  0  0  0  0
    4.6408   -0.3415    0.0000 C   0  0  0  0  0  0  0  0  0  0  0  0
    3.9691   -1.6828    0.0000 O   0  0  0  0  0  0  0  0  0  0  0  0
    6.1382   -0.2526    0.0000 O   0  0  0  0  0  0  0  0  0  0  0  0
    6.9638   -1.5049    0.0000 C   0  0  0  0  0  0  0  0  0  0  0  0
    1.5095   -0.4418    0.0000 N   0  0  0  0  0  0  0  0  0  0  0  0
    0.0580   -0.0637    0.0000 C   0  0  0  0  0  0  0  0  0  0  0  0
   -1.1943   -0.8893    0.0000 C   0  0  0  0  0  0  0  0  0  0  0  0
  1  2  1  0
  2  3  1  0
  3  4  1  0
  4  5  1  0
  5  6  2  0
  6  7  1  0
  7  8  2  0
  8  9  1  0
  9 10  2  0
 10 11  1  0
 11 12  1  0
 12 13  2  0
 12 14  1  0
 14 15  1  0
 10 16  1  0
 16 17  1  0
 17 18  2  0
 18  5  1  0
 17  8  1  0
M  END
> <Identifier>
2082.0

> <DILI>
1

$$$$

     RDKit          2D

 17 17  0  0  0  0  0  0  0  0999 V2000
   -5.3105   -1.1197    0.0000 C   0  0  0  0  0  0  0  0  0  0  0  0
   -4.5063    0.1465    0.0000 C   0  0  0  0  0  0  0  0  0  0  0  0
   -3.7020    1.4126    0.0000 C   0  0  0  0  0  0  0  0  0  0  0  0
   -5.7724    0.9507    0.0000 C   0  0  0  0  0  0  0  0  0  0  0  0
   -3.2401   -0.6578    0.0000 N   0  0  0  0  0  0  0  0  0  0  0  0
   -1.9105    0.0367    0.0000 C   0  0  0  0  0  0  0  0  0  0  0  0
   -0.6443   -0.7676    0.0000 C   0  0  0  0  0  0  0  0  0  0  0  0
   -0.7077   -2.2662    0.0000 O   0  0  0  0  0  0  0  0  0  0  0  0
    0.6852   -0.0731    0.0000 C   0  0  0  0  0  0  0  0  0  0  0  0
    0.7486    1.4255    0.0000 C   0  0  0  0  0  0  0  0  0  0  0  0
    2.0782    2.1199    0.0000 C   0  0  0  0  0  0  0  0  0  0  0  0
    3.3444    1.3157    0.0000 C   0  0  0  0  0  0  0  0  0  0  0  0
    4.6740    2.0102    0.0000 O   0  0  0  0  0  0  0  0  0  0  0  0
    3.2810   -0.1829    0.0000 C   0  0  0  0  0  0  0  0  0  0  0  0
    4.5472   -0.9872    0.0000 C   0  0  0  0  0  0  0  0  0  0  0  0
    4.4838   -2.4858    0.0000 O   0  0  0  0  0  0  0  0  0  0  0  0
    1.9514   -0.8774    0.0000 C   0  0  0  0  0  0  0  0  0  0  0  0
  1  2  1  0
  2  3  1  0
  2  4  1  0
  2  5  1  0
  5  6  1  0
  6  7  1  0
  7  8  1  0
  7  9  1  0
  9 10  2  0
 10 11  1  0
 11 12  2  0
 12 13  1  0
 12 14  1  0
 14 15  1  0
 15 16  1  0
 14 17  2  0
 17  9  1  0
M  END
> <Identifier>
2083.0

> <DILI>
0

$$$$

     RDKit          2D

 14 13  0  0  0  0  0  0  0  0999 V2000
    4.2748    0.8107    0.0000 N   0  0  0  0  0  0  0  0  0  0  0  0
    2.8554    1.2959    0.0000 C   0  0  0  0  0  0  0  0  0  0  0  0
    1.7255    0.3093    0.0000 C   0  0  0  0  0  0  0  0  0  0  0  0
    0.3062    0.7945    0.0000 C   0  0  0  0  0  0  0  0  0  0  0  0
   -0.8237   -0.1921    0.0000 C   0  0  0  0  0  0  0  0  0  0  0  0
   -1.9536   -1.1787    0.0000 O   0  0  0  0  0  0  0  0  0  0  0  0
   -1.8103    0.9378    0.0000 P   0  0  0  0  0  0  0  0  0  0  0  0
   -2.7969    2.0676    0.0000 O   0  0  0  0  0  0  0  0  0  0  0  0
   -2.9402   -0.0488    0.0000 O   0  0  0  0  0  0  0  0  0  0  0  0
   -0.6804    1.9244    0.0000 O   0  0  0  0  0  0  0  0  0  0  0  0
    0.1629   -1.3220    0.0000 P   0  0  0  0  0  0  0  0  0  0  0  0
    1.1495   -2.4519    0.0000 O   0  0  0  0  0  0  0  0  0  0  0  0
   -0.9670   -2.3086    0.0000 O   0  0  0  0  0  0  0  0  0  0  0  0
    1.4979   -0.6381    0.0000 O   0  0  0  0  0  0  0  0  0  0  0  0
  1  2  1  0
  2  3  1  0
  3  4  1  0
  4  5  1  0
  5  6  1  0
  5  7  1  0
  7  8  2  0
  7  9  1  0
  7 10  1  0
  5 11  1  0
 11 12  2  0
 11 13  1  0
 11 14  1  0
M  END
> <Identifier>
2088.0

> <DILI>
0

$$$$

     RDKit          2D

 10 11  0  0  0  0  0  0  0  0999 V2000
    1.6198    2.3424    0.0000 O   0  0  0  0  0  0  0  0  0  0  0  0
    1.2034    0.9014    0.0000 C   0  0  0  0  0  0  0  0  0  0  0  0
    2.2432   -0.1798    0.0000 N   0  0  0  0  0  0  0  0  0  0  0  0
    1.8268   -1.6208    0.0000 C   0  0  0  0  0  0  0  0  0  0  0  0
    0.3706   -1.9807    0.0000 N   0  0  0  0  0  0  0  0  0  0  0  0
   -0.6692   -0.8996    0.0000 C   0  0  0  0  0  0  0  0  0  0  0  0
   -2.1684   -0.9489    0.0000 N   0  0  0  0  0  0  0  0  0  0  0  0
   -2.6786    0.4617    0.0000 N   0  0  0  0  0  0  0  0  0  0  0  0
   -1.4947    1.3828    0.0000 C   0  0  0  0  0  0  0  0  0  0  0  0
   -0.2528    0.5415    0.0000 C   0  0  0  0  0  0  0  0  0  0  0  0
  1  2  2  0
  2  3  1  0
  3  4  2  0
  4  5  1  0
  5  6  2  0
  6  7  1  0
  7  8  1  0
  8  9  1  0
  9 10  2  0
 10  2  1  0
 10  6  1  0
M  END
> <Identifier>
2094.0

> <DILI>
1

$$$$

     RDKit          2D

 11 13  0  0  0  0  0  0  0  0999 V2000
   -1.3217    1.9473    0.0000 N   0  0  0  0  0  0  0  0  0  0  0  0
   -0.1523    1.0079    0.0000 C   0  0  0  0  0  0  0  0  0  0  0  0
   -0.3813   -0.4746    0.0000 C   0  0  0  0  0  0  0  0  0  0  0  0
    0.7881   -1.4140    0.0000 C   0  0  0  0  0  0  0  0  0  0  0  0
    2.1864   -0.8711    0.0000 C   0  0  0  0  0  0  0  0  0  0  0  0
    2.4153    0.6114    0.0000 C   0  0  0  0  0  0  0  0  0  0  0  0
   -0.8401    0.1518    0.0000 C   0  0  0  0  0  0  0  0  0  0  0  0
   -1.7795   -1.0175    0.0000 C   0  0  0  0  0  0  0  0  0  0  0  0
   -0.6102   -1.9570    0.0000 C   0  0  0  0  0  0  0  0  0  0  0  0
   -1.5506    0.4649    0.0000 C   0  0  0  0  0  0  0  0  0  0  0  0
    1.2459    1.5508    0.0000 C   0  0  0  0  0  0  0  0  0  0  0  0
  1  2  1  0
  2  3  1  0
  3  4  1  0
  4  5  1  0
  5  6  1  0
  6  7  1  0
  7  8  1  0
  8  9  1  0
  8 10  1  0
  6 11  1  0
 10  2  1  0
 11  2  1  0
  9  4  1  0
M  END
> <Identifier>
2130.0

> <DILI>
0

$$$$

     RDKit          2D

 20 20  0  0  0  0  0  0  0  0999 V2000
   -5.4249    0.5250    0.0000 C   0  0  0  0  0  0  0  0  0  0  0  0
   -3.9301    0.6497    0.0000 C   0  0  0  0  0  0  0  0  0  0  0  0
   -3.2908    2.0066    0.0000 O   0  0  0  0  0  0  0  0  0  0  0  0
   -3.0747   -0.5824    0.0000 N   0  0  0  0  0  0  0  0  0  0  0  0
   -1.5799   -0.4577    0.0000 C   0  0  0  0  0  0  0  0  0  0  0  0
   -0.9405    0.8992    0.0000 C   0  0  0  0  0  0  0  0  0  0  0  0
   -1.7959    2.1314    0.0000 I   0  0  0  0  0  0  0  0  0  0  0  0
    0.5543    1.0239    0.0000 C   0  0  0  0  0  0  0  0  0  0  0  0
    1.1937    2.3808    0.0000 N   0  0  0  0  0  0  0  0  0  0  0  0
    2.6885    2.5055    0.0000 C   0  0  0  0  0  0  0  0  0  0  0  0
    3.3279    3.8624    0.0000 C   0  0  0  0  0  0  0  0  0  0  0  0
    3.5439    1.2734    0.0000 O   0  0  0  0  0  0  0  0  0  0  0  0
    1.4097   -0.2083    0.0000 C   0  0  0  0  0  0  0  0  0  0  0  0
    2.9045   -0.0835    0.0000 I   0  0  0  0  0  0  0  0  0  0  0  0
    0.7703   -1.5652    0.0000 C   0  0  0  0  0  0  0  0  0  0  0  0
    1.6257   -2.7973    0.0000 C   0  0  0  0  0  0  0  0  0  0  0  0
    3.1205   -2.6726    0.0000 O   0  0  0  0  0  0  0  0  0  0  0  0
    0.9863   -4.1542    0.0000 O   0  0  0  0  0  0  0  0  0  0  0  0
   -0.7245   -1.6899    0.0000 C   0  0  0  0  0  0  0  0  0  0  0  0
   -1.3639   -3.0468    0.0000 I   0  0  0  0  0  0  0  0  0  0  0  0
  1  2  1  0
  2  3  2  0
  2  4  1  0
  4  5  1  0
  5  6  2  0
  6  7  1  0
  6  8  1  0
  8  9  1  0
  9 10  1  0
 10 11  1  0
 10 12  2  0
  8 13  2  0
 13 14  1  0
 13 15  1  0
 15 16  1  0
 16 17  2  0
 16 18  1  0
 15 19  2  0
 19 20  1  0
 19  5  1  0
M  END
> <Identifier>
2140.0

> <DILI>
0

$$$$

     RDKit          2D

 12 11  0  0  0  0  0  0  0  0999 V2000
   -6.5924    0.4248    0.0000 N   0  0  0  0  0  0  0  0  0  0  0  0
   -5.3212   -0.3714    0.0000 C   0  0  0  0  0  0  0  0  0  0  0  0
   -3.9960    0.3314    0.0000 C   0  0  0  0  0  0  0  0  0  0  0  0
   -2.7248   -0.4648    0.0000 C   0  0  0  0  0  0  0  0  0  0  0  0
   -1.3996    0.2380    0.0000 N   0  0  0  0  0  0  0  0  0  0  0  0
   -0.1284   -0.5582    0.0000 C   0  0  0  0  0  0  0  0  0  0  0  0
    1.1968    0.1446    0.0000 C   0  0  0  0  0  0  0  0  0  0  0  0
    2.4680   -0.6517    0.0000 S   0  0  0  0  0  0  0  0  0  0  0  0
    3.7932    0.0512    0.0000 P   0  0  0  0  0  0  0  0  0  0  0  0
    4.4960   -1.2740    0.0000 O   0  0  0  0  0  0  0  0  0  0  0  0
    3.0903    1.3763    0.0000 O   0  0  0  0  0  0  0  0  0  0  0  0
    5.1183    0.7540    0.0000 O   0  0  0  0  0  0  0  0  0  0  0  0
  1  2  1  0
  2  3  1  0
  3  4  1  0
  4  5  1  0
  5  6  1  0
  6  7  1  0
  7  8  1  0
  8  9  1  0
  9 10  2  0
  9 11  1  0
  9 12  1  0
M  END
> <Identifier>
2141.0

> <DILI>
0

$$$$

     RDKit          2D

 17 18  0  0  0  0  0  0  0  0999 V2000
   -1.1201   -2.8198    0.0000 C   0  0  0  0  0  0  0  0  0  0  0  0
   -0.1401   -1.6842    0.0000 C   0  0  0  0  0  0  0  0  0  0  0  0
   -0.6336   -0.2677    0.0000 C   0  0  0  0  0  0  0  0  0  0  0  0
    0.8471   -0.0277    0.0000 C   0  0  0  0  0  0  0  0  0  0  0  0
    1.7953   -1.1900    0.0000 C   0  0  0  0  0  0  0  0  0  0  0  0
    3.2760   -0.9500    0.0000 C   0  0  0  0  0  0  0  0  0  0  0  0
    3.8084    0.4523    0.0000 C   0  0  0  0  0  0  0  0  0  0  0  0
    5.2891    0.6923    0.0000 N   0  0  0  0  0  0  0  0  0  0  0  0
    2.8603    1.6146    0.0000 C   0  0  0  0  0  0  0  0  0  0  0  0
    1.3796    1.3746    0.0000 C   0  0  0  0  0  0  0  0  0  0  0  0
   -0.6128    1.2322    0.0000 C   0  0  0  0  0  0  0  0  0  0  0  0
   -1.9013    2.0001    0.0000 C   0  0  0  0  0  0  0  0  0  0  0  0
   -3.2106    1.2681    0.0000 C   0  0  0  0  0  0  0  0  0  0  0  0
   -4.4992    2.0360    0.0000 O   0  0  0  0  0  0  0  0  0  0  0  0
   -3.2314   -0.2317    0.0000 N   0  0  0  0  0  0  0  0  0  0  0  0
   -1.9429   -0.9996    0.0000 C   0  0  0  0  0  0  0  0  0  0  0  0
   -1.9636   -2.4995    0.0000 O   0  0  0  0  0  0  0  0  0  0  0  0
  1  2  1  0
  2  3  1  0
  3  4  1  0
  4  5  2  0
  5  6  1  0
  6  7  2  0
  7  8  1  0
  7  9  1  0
  9 10  2  0
  3 11  1  0
 11 12  1  0
 12 13  1  0
 13 14  2  0
 13 15  1  0
 15 16  1  0
 16 17  2  0
 16  3  1  0
 10  4  1  0
M  END
> <Identifier>
2145.0

> <DILI>
0

$$$$

     RDKit          2D

 21 23  0  0  0  0  0  0  0  0999 V2000
   -5.7199   -2.5061    0.0000 C   0  0  0  0  0  0  0  0  0  0  0  0
   -4.6183   -1.4881    0.0000 N   0  0  0  0  0  0  0  0  0  0  0  0
   -4.9490   -0.0251    0.0000 C   0  0  0  0  0  0  0  0  0  0  0  0
   -3.1858   -1.9332    0.0000 C   0  0  0  0  0  0  0  0  0  0  0  0
   -2.0841   -0.9152    0.0000 C   0  0  0  0  0  0  0  0  0  0  0  0
   -0.6517   -1.3602    0.0000 C   0  0  0  0  0  0  0  0  0  0  0  0
    0.4500   -0.3422    0.0000 C   0  0  0  0  0  0  0  0  0  0  0  0
    1.8452   -0.8931    0.0000 C   0  0  0  0  0  0  0  0  0  0  0  0
    1.8421   -2.3931    0.0000 C   0  0  0  0  0  0  0  0  0  0  0  0
    3.1396   -3.1457    0.0000 C   0  0  0  0  0  0  0  0  0  0  0  0
    4.4402   -2.3984    0.0000 C   0  0  0  0  0  0  0  0  0  0  0  0
    4.4432   -0.8984    0.0000 C   0  0  0  0  0  0  0  0  0  0  0  0
    3.1457   -0.1457    0.0000 C   0  0  0  0  0  0  0  0  0  0  0  0
    3.3723    1.3370    0.0000 C   0  0  0  0  0  0  0  0  0  0  0  0
    2.3543    2.4387    0.0000 C   0  0  0  0  0  0  0  0  0  0  0  0
    0.8583    2.3297    0.0000 C   0  0  0  0  0  0  0  0  0  0  0  0
    0.2102    3.6824    0.0000 C   0  0  0  0  0  0  0  0  0  0  0  0
   -1.2854    3.7976    0.0000 C   0  0  0  0  0  0  0  0  0  0  0  0
   -2.1329    2.5600    0.0000 C   0  0  0  0  0  0  0  0  0  0  0  0
   -1.4848    1.2072    0.0000 C   0  0  0  0  0  0  0  0  0  0  0  0
    0.0108    1.0920    0.0000 C   0  0  0  0  0  0  0  0  0  0  0  0
  1  2  1  0
  2  3  1  0
  2  4  1  0
  4  5  1  0
  5  6  1  0
  6  7  2  0
  7  8  1  0
  8  9  2  0
  9 10  1  0
 10 11  2  0
 11 12  1  0
 12 13  2  0
 13 14  1  0
 14 15  1  0
 15 16  1  0
 16 17  2  0
 17 18  1  0
 18 19  2  0
 19 20  1  0
 20 21  2  0
 21  7  1  0
 13  8  1  0
 21 16  1  0
M  END
> <Identifier>
2160.0

> <DILI>
0

$$$$

     RDKit          2D

 25 27  0  0  0  0  0  0  0  0999 V2000
   -6.2073    3.3525    0.0000 C   0  0  0  0  0  0  0  0  0  0  0  0
   -6.1095    1.8557    0.0000 C   0  0  0  0  0  0  0  0  0  0  0  0
   -4.7644    1.1920    0.0000 N   0  0  0  0  0  0  0  0  0  0  0  0
   -3.5170    2.0250    0.0000 C   0  0  0  0  0  0  0  0  0  0  0  0
   -3.6148    3.5218    0.0000 C   0  0  0  0  0  0  0  0  0  0  0  0
   -4.6666   -0.3049    0.0000 C   0  0  0  0  0  0  0  0  0  0  0  0
   -3.3214   -0.9686    0.0000 C   0  0  0  0  0  0  0  0  0  0  0  0
   -2.0740   -0.1355    0.0000 C   0  0  0  0  0  0  0  0  0  0  0  0
   -0.7289   -0.7992    0.0000 C   0  0  0  0  0  0  0  0  0  0  0  0
    0.5185    0.0339    0.0000 N   0  0  0  0  0  0  0  0  0  0  0  0
    1.8637   -0.6298    0.0000 C   0  0  0  0  0  0  0  0  0  0  0  0
    1.9615   -2.1267    0.0000 C   0  0  0  0  0  0  0  0  0  0  0  0
    3.3066   -2.7904    0.0000 C   0  0  0  0  0  0  0  0  0  0  0  0
    4.5540   -1.9573    0.0000 N   0  0  0  0  0  0  0  0  0  0  0  0
    4.4562   -0.4605    0.0000 C   0  0  0  0  0  0  0  0  0  0  0  0
    5.7036    0.3726    0.0000 C   0  0  0  0  0  0  0  0  0  0  0  0
    5.6058    1.8694    0.0000 C   0  0  0  0  0  0  0  0  0  0  0  0
    6.8532    2.7025    0.0000 Cl  0  0  0  0  0  0  0  0  0  0  0  0
    4.2607    2.5331    0.0000 C   0  0  0  0  0  0  0  0  0  0  0  0
    3.0133    1.7000    0.0000 C   0  0  0  0  0  0  0  0  0  0  0  0
    3.1111    0.2032    0.0000 C   0  0  0  0  0  0  0  0  0  0  0  0
   -0.6311   -2.2960    0.0000 C   0  0  0  0  0  0  0  0  0  0  0  0
   -1.8785   -3.1291    0.0000 C   0  0  0  0  0  0  0  0  0  0  0  0
   -3.2236   -2.4654    0.0000 C   0  0  0  0  0  0  0  0  0  0  0  0
   -4.4710   -3.2985    0.0000 O   0  0  0  0  0  0  0  0  0  0  0  0
  1  2  1  0
  2  3  1  0
  3  4  1  0
  4  5  1  0
  3  6  1  0
  6  7  1  0
  7  8  2  0
  8  9  1  0
  9 10  1  0
 10 11  1  0
 11 12  2  0
 12 13  1  0
 13 14  2  0
 14 15  1  0
 15 16  2  0
 16 17  1  0
 17 18  1  0
 17 19  2  0
 19 20  1  0
 20 21  2  0
  9 22  2  0
 22 23  1  0
 23 24  2  0
 24 25  1  0
 24  7  1  0
 21 11  1  0
 21 15  1  0
M  END
> <Identifier>
2165.0

> <DILI>
1

$$$$

     RDKit          2D

 28 31  0  0  0  0  0  0  0  0999 V2000
   -1.7474   -4.9982    0.0000 C   0  0  0  0  0  0  0  0  0  0  0  0
   -0.8201   -3.8193    0.0000 O   0  0  0  0  0  0  0  0  0  0  0  0
   -1.3775   -2.4266    0.0000 C   0  0  0  0  0  0  0  0  0  0  0  0
   -2.8622   -2.2130    0.0000 C   0  0  0  0  0  0  0  0  0  0  0  0
   -3.4195   -0.8204    0.0000 C   0  0  0  0  0  0  0  0  0  0  0  0
   -4.9043   -0.6068    0.0000 N   0  0  0  0  0  0  0  0  0  0  0  0
   -5.4616    0.7858    0.0000 S   0  0  0  0  0  0  0  0  0  0  0  0
   -6.0190    2.1784    0.0000 C   0  0  0  0  0  0  0  0  0  0  0  0
   -4.0690    1.3431    0.0000 O   0  0  0  0  0  0  0  0  0  0  0  0
   -6.8542    0.2284    0.0000 O   0  0  0  0  0  0  0  0  0  0  0  0
   -2.4922    0.3586    0.0000 C   0  0  0  0  0  0  0  0  0  0  0  0
   -1.0075    0.1449    0.0000 C   0  0  0  0  0  0  0  0  0  0  0  0
   -0.4501   -1.2477    0.0000 C   0  0  0  0  0  0  0  0  0  0  0  0
    1.0346   -1.4613    0.0000 N   0  0  0  0  0  0  0  0  0  0  0  0
    1.9619   -0.2823    0.0000 C   0  0  0  0  0  0  0  0  0  0  0  0
    3.4467   -0.4959    0.0000 C   0  0  0  0  0  0  0  0  0  0  0  0
    4.0040   -1.8885    0.0000 C   0  0  0  0  0  0  0  0  0  0  0  0
    5.4887   -2.1021    0.0000 C   0  0  0  0  0  0  0  0  0  0  0  0
    6.4161   -0.9231    0.0000 C   0  0  0  0  0  0  0  0  0  0  0  0
    5.8587    0.4695    0.0000 C   0  0  0  0  0  0  0  0  0  0  0  0
    4.3740    0.6831    0.0000 C   0  0  0  0  0  0  0  0  0  0  0  0
    3.8166    2.0757    0.0000 N   0  0  0  0  0  0  0  0  0  0  0  0
    2.3319    2.2893    0.0000 C   0  0  0  0  0  0  0  0  0  0  0  0
    1.7746    3.6819    0.0000 C   0  0  0  0  0  0  0  0  0  0  0  0
    0.2898    3.8955    0.0000 C   0  0  0  0  0  0  0  0  0  0  0  0
   -0.6375    2.7165    0.0000 C   0  0  0  0  0  0  0  0  0  0  0  0
   -0.0801    1.3239    0.0000 C   0  0  0  0  0  0  0  0  0  0  0  0
    1.4046    1.1103    0.0000 C   0  0  0  0  0  0  0  0  0  0  0  0
  1  2  1  0
  2  3  1  0
  3  4  2  0
  4  5  1  0
  5  6  1  0
  6  7  1  0
  7  8  1  0
  7  9  2  0
  7 10  2  0
  5 11  2  0
 11 12  1  0
 12 13  2  0
 13 14  1  0
 14 15  1  0
 15 16  1  0
 16 17  2  0
 17 18  1  0
 18 19  2  0
 19 20  1  0
 20 21  2  0
 21 22  1  0
 22 23  2  0
 23 24  1  0
 24 25  2  0
 25 26  1  0
 26 27  2  0
 27 28  1  0
 13  3  1  0
 28 15  2  0
 21 16  1  0
 28 23  1  0
M  END
> <Identifier>
2179.0

> <DILI>
1

$$$$

     RDKit          2D

 13 13  0  0  0  0  0  0  0  0999 V2000
   -3.8123   -1.2868    0.0000 C   0  0  0  0  0  0  0  0  0  0  0  0
   -2.6987   -0.2818    0.0000 C   0  0  0  0  0  0  0  0  0  0  0  0
   -3.0122    1.1850    0.0000 O   0  0  0  0  0  0  0  0  0  0  0  0
   -1.2716   -0.7438    0.0000 O   0  0  0  0  0  0  0  0  0  0  0  0
   -0.1580    0.2612    0.0000 C   0  0  0  0  0  0  0  0  0  0  0  0
   -0.4715    1.7281    0.0000 C   0  0  0  0  0  0  0  0  0  0  0  0
    0.6420    2.7330    0.0000 C   0  0  0  0  0  0  0  0  0  0  0  0
    2.0691    2.2711    0.0000 C   0  0  0  0  0  0  0  0  0  0  0  0
    2.3827    0.8043    0.0000 C   0  0  0  0  0  0  0  0  0  0  0  0
    1.2691   -0.2007    0.0000 C   0  0  0  0  0  0  0  0  0  0  0  0
    1.5826   -1.6676    0.0000 C   0  0  0  0  0  0  0  0  0  0  0  0
    3.0097   -2.1295    0.0000 O   0  0  0  0  0  0  0  0  0  0  0  0
    0.4690   -2.6725    0.0000 O   0  0  0  0  0  0  0  0  0  0  0  0
  1  2  1  0
  2  3  2  0
  2  4  1  0
  4  5  1  0
  5  6  2  0
  6  7  1  0
  7  8  2  0
  8  9  1  0
  9 10  2  0
 10 11  1  0
 11 12  2  0
 11 13  1  0
 10  5  1  0
M  END
> <Identifier>
2244.0

> <DILI>
0

$$$$

     RDKit          2D

 34 38  0  0  0  0  0  0  0  0999 V2000
   -9.8794    2.1739    0.0000 C   0  0  0  0  0  0  0  0  0  0  0  0
   -9.4398    0.7398    0.0000 O   0  0  0  0  0  0  0  0  0  0  0  0
   -7.9780    0.4034    0.0000 C   0  0  0  0  0  0  0  0  0  0  0  0
   -6.9558    1.5012    0.0000 C   0  0  0  0  0  0  0  0  0  0  0  0
   -5.4940    1.1648    0.0000 C   0  0  0  0  0  0  0  0  0  0  0  0
   -5.0544   -0.2693    0.0000 C   0  0  0  0  0  0  0  0  0  0  0  0
   -3.5926   -0.6057    0.0000 C   0  0  0  0  0  0  0  0  0  0  0  0
   -3.1530   -2.0398    0.0000 C   0  0  0  0  0  0  0  0  0  0  0  0
   -1.6912   -2.3762    0.0000 N   0  0  0  0  0  0  0  0  0  0  0  0
   -1.2516   -3.8104    0.0000 C   0  0  0  0  0  0  0  0  0  0  0  0
    0.2102   -4.1467    0.0000 C   0  0  0  0  0  0  0  0  0  0  0  0
    1.2324   -3.0490    0.0000 C   0  0  0  0  0  0  0  0  0  0  0  0
    2.6942   -3.3853    0.0000 N   0  0  0  0  0  0  0  0  0  0  0  0
    3.7164   -2.2876    0.0000 C   0  0  0  0  0  0  0  0  0  0  0  0
    5.2054   -2.4693    0.0000 N   0  0  0  0  0  0  0  0  0  0  0  0
    5.8383   -1.1094    0.0000 C   0  0  0  0  0  0  0  0  0  0  0  0
    7.2725   -0.6698    0.0000 C   0  0  0  0  0  0  0  0  0  0  0  0
    7.6088    0.7920    0.0000 C   0  0  0  0  0  0  0  0  0  0  0  0
    6.5111    1.8142    0.0000 C   0  0  0  0  0  0  0  0  0  0  0  0
    5.0769    1.3746    0.0000 C   0  0  0  0  0  0  0  0  0  0  0  0
    4.7405   -0.0872    0.0000 C   0  0  0  0  0  0  0  0  0  0  0  0
    3.4291   -0.8153    0.0000 N   0  0  0  0  0  0  0  0  0  0  0  0
    2.0692   -0.1824    0.0000 C   0  0  0  0  0  0  0  0  0  0  0  0
    1.9374    1.3118    0.0000 C   0  0  0  0  0  0  0  0  0  0  0  0
    3.1655    2.1731    0.0000 C   0  0  0  0  0  0  0  0  0  0  0  0
    3.0337    3.6673    0.0000 C   0  0  0  0  0  0  0  0  0  0  0  0
    1.6738    4.3002    0.0000 C   0  0  0  0  0  0  0  0  0  0  0  0
    1.5420    5.7944    0.0000 F   0  0  0  0  0  0  0  0  0  0  0  0
    0.4457    3.4390    0.0000 C   0  0  0  0  0  0  0  0  0  0  0  0
    0.5775    1.9448    0.0000 C   0  0  0  0  0  0  0  0  0  0  0  0
    0.7928   -1.6148    0.0000 C   0  0  0  0  0  0  0  0  0  0  0  0
   -0.6690   -1.2784    0.0000 C   0  0  0  0  0  0  0  0  0  0  0  0
   -6.0766   -1.3671    0.0000 C   0  0  0  0  0  0  0  0  0  0  0  0
   -7.5384   -1.0307    0.0000 C   0  0  0  0  0  0  0  0  0  0  0  0
  1  2  1  0
  2  3  1  0
  3  4  2  0
  4  5  1  0
  5  6  2  0
  6  7  1  0
  7  8  1  0
  8  9  1  0
  9 10  1  0
 10 11  1  0
 11 12  1  0
 12 13  1  0
 13 14  1  0
 14 15  2  0
 15 16  1  0
 16 17  2  0
 17 18  1  0
 18 19  2  0
 19 20  1  0
 20 21  2  0
 21 22  1  0
 22 23  1  0
 23 24  1  0
 24 25  2  0
 25 26  1  0
 26 27  2  0
 27 28  1  0
 27 29  1  0
 29 30  2  0
 12 31  1  0
 31 32  1  0
  6 33  1  0
 33 34  2  0
 34  3  1  0
 32  9  1  0
 22 14  1  0
 30 24  1  0
 21 16  1  0
M  END
> <Identifier>
2247.0

> <DILI>
0

$$$$

     RDKit          2D

 19 19  0  0  0  0  0  0  0  0999 V2000
   -8.1430    0.0395    0.0000 C   0  0  0  0  0  0  0  0  0  0  0  0
   -6.7514    0.5995    0.0000 C   0  0  0  0  0  0  0  0  0  0  0  0
   -6.5406    2.0846    0.0000 C   0  0  0  0  0  0  0  0  0  0  0  0
   -5.5707   -0.3256    0.0000 N   0  0  0  0  0  0  0  0  0  0  0  0
   -4.1791    0.2344    0.0000 C   0  0  0  0  0  0  0  0  0  0  0  0
   -2.9984   -0.6907    0.0000 C   0  0  0  0  0  0  0  0  0  0  0  0
   -3.2092   -2.1759    0.0000 O   0  0  0  0  0  0  0  0  0  0  0  0
   -1.6068   -0.1307    0.0000 C   0  0  0  0  0  0  0  0  0  0  0  0
   -0.4261   -1.0559    0.0000 O   0  0  0  0  0  0  0  0  0  0  0  0
    0.9655   -0.4959    0.0000 C   0  0  0  0  0  0  0  0  0  0  0  0
    1.1763    0.9892    0.0000 C   0  0  0  0  0  0  0  0  0  0  0  0
    2.5678    1.5492    0.0000 C   0  0  0  0  0  0  0  0  0  0  0  0
    3.7485    0.6241    0.0000 C   0  0  0  0  0  0  0  0  0  0  0  0
    5.1401    1.1841    0.0000 C   0  0  0  0  0  0  0  0  0  0  0  0
    6.3208    0.2590    0.0000 C   0  0  0  0  0  0  0  0  0  0  0  0
    7.7124    0.8190    0.0000 N   0  0  0  0  0  0  0  0  0  0  0  0
    6.1100   -1.2261    0.0000 O   0  0  0  0  0  0  0  0  0  0  0  0
    3.5377   -0.8610    0.0000 C   0  0  0  0  0  0  0  0  0  0  0  0
    2.1462   -1.4210    0.0000 C   0  0  0  0  0  0  0  0  0  0  0  0
  1  2  1  0
  2  3  1  0
  2  4  1  0
  4  5  1  0
  5  6  1  0
  6  7  1  0
  6  8  1  0
  8  9  1  0
  9 10  1  0
 10 11  2  0
 11 12  1  0
 12 13  2  0
 13 14  1  0
 14 15  1  0
 15 16  1  0
 15 17  2  0
 13 18  1  0
 18 19  2  0
 19 10  1  0
M  END
> <Identifier>
2249.0

> <DILI>
0

$$$$

     RDKit          2D

 19 21  0  0  0  0  0  0  0  0999 V2000
    0.5319   -2.7298    0.0000 C   0  0  0  0  0  0  0  0  0  0  0  0
    1.6970   -1.7851    0.0000 N   0  0  0  0  0  0  0  0  0  0  0  0
    3.1462   -2.1725    0.0000 C   0  0  0  0  0  0  0  0  0  0  0  0
    3.9624   -0.9140    0.0000 N   0  0  0  0  0  0  0  0  0  0  0  0
    3.0177    0.2512    0.0000 C   0  0  0  0  0  0  0  0  0  0  0  0
    3.4051    1.7003    0.0000 N   0  0  0  0  0  4  0  0  0  0  0  0
    2.3438    2.7603    0.0000 O   0  0  0  0  0  0  0  0  0  0  0  0
    4.8538    2.0894    0.0000 O   0  0  0  0  0  1  0  0  0  0  0  0
    1.6177   -0.2872    0.0000 C   0  0  0  0  0  0  0  0  0  0  0  0
    0.3592    0.5290    0.0000 S   0  0  0  0  0  0  0  0  0  0  0  0
   -0.9769   -0.1527    0.0000 C   0  0  0  0  0  0  0  0  0  0  0  0
   -1.0546   -1.6507    0.0000 N   0  0  0  0  0  0  0  0  0  0  0  0
   -2.3907   -2.3325    0.0000 C   0  0  0  0  0  0  0  0  0  0  0  0
   -3.6492   -1.5163    0.0000 N   0  0  0  0  0  0  0  0  0  0  0  0
   -3.5715   -0.0183    0.0000 C   0  0  0  0  0  0  0  0  0  0  0  0
   -4.6328    1.0417    0.0000 N   0  0  0  0  0  0  0  0  0  0  0  0
   -3.9526    2.3787    0.0000 C   0  0  0  0  0  0  0  0  0  0  0  0
   -2.4709    2.1449    0.0000 N   0  0  0  0  0  0  0  0  0  0  0  0
   -2.2354    0.6635    0.0000 C   0  0  0  0  0  0  0  0  0  0  0  0
  1  2  1  0
  2  3  1  0
  3  4  2  0
  4  5  1  0
  5  6  1  0
  6  7  2  0
  6  8  1  0
  5  9  2  0
  9 10  1  0
 10 11  1  0
 11 12  2  0
 12 13  1  0
 13 14  2  0
 14 15  1  0
 15 16  1  0
 16 17  2  0
 17 18  1  0
 18 19  1  0
  9  2  1  0
 19 11  1  0
 19 15  2  0
M  CHG  2   6   1   8  -1
M  END
> <Identifier>
2265.0

> <DILI>
1

$$$$

     RDKit          2D

 21 23  0  0  0  0  0  0  0  0999 V2000
    4.6164    3.2230    0.0000 O   0  0  0  0  0  0  0  0  0  0  0  0
    3.1596    3.5801    0.0000 C   0  0  0  0  0  0  0  0  0  0  0  0
    2.7404    5.0203    0.0000 O   0  0  0  0  0  0  0  0  0  0  0  0
    2.1219    2.4970    0.0000 C   0  0  0  0  0  0  0  0  0  0  0  0
    2.5410    1.0567    0.0000 O   0  0  0  0  0  0  0  0  0  0  0  0
    1.5033   -0.0264    0.0000 C   0  0  0  0  0  0  0  0  0  0  0  0
    0.0171    0.1765    0.0000 N   0  0  0  0  0  0  0  0  0  0  0  0
   -0.6351   -1.1743    0.0000 N   0  0  0  0  0  0  0  0  0  0  0  0
   -2.1113   -1.4406    0.0000 C   0  0  0  0  0  0  0  0  0  0  0  0
   -3.0800   -0.2954    0.0000 C   0  0  0  0  0  0  0  0  0  0  0  0
   -2.5726    1.1162    0.0000 C   0  0  0  0  0  0  0  0  0  0  0  0
   -3.5413    2.2614    0.0000 C   0  0  0  0  0  0  0  0  0  0  0  0
   -5.0175    1.9951    0.0000 C   0  0  0  0  0  0  0  0  0  0  0  0
   -5.5249    0.5835    0.0000 C   0  0  0  0  0  0  0  0  0  0  0  0
   -4.5562   -0.5617    0.0000 C   0  0  0  0  0  0  0  0  0  0  0  0
    0.4480   -2.2120    0.0000 C   0  0  0  0  0  0  0  0  0  0  0  0
    0.4016   -3.7113    0.0000 C   0  0  0  0  0  0  0  0  0  0  0  0
    1.6768   -4.5011    0.0000 C   0  0  0  0  0  0  0  0  0  0  0  0
    2.9984   -3.7917    0.0000 C   0  0  0  0  0  0  0  0  0  0  0  0
    3.0448   -2.2924    0.0000 C   0  0  0  0  0  0  0  0  0  0  0  0
    1.7696   -1.5026    0.0000 C   0  0  0  0  0  0  0  0  0  0  0  0
  1  2  2  0
  2  3  1  0
  2  4  1  0
  4  5  1  0
  5  6  1  0
  6  7  2  0
  7  8  1  0
  8  9  1  0
  9 10  1  0
 10 11  2  0
 11 12  1  0
 12 13  2  0
 13 14  1  0
 14 15  2  0
  8 16  1  0
 16 17  2  0
 17 18  1  0
 18 19  2  0
 19 20  1  0
 20 21  2  0
 21  6  1  0
 15 10  1  0
 21 16  1  0
M  END
> <Identifier>
2313.0

> <DILI>
1

$$$$

     RDKit          2D

 22 24  0  0  0  0  0  0  0  0999 V2000
   -0.3322   -3.4871    0.0000 C   0  0  0  0  0  0  0  0  0  0  0  0
   -0.2801   -1.9880    0.0000 C   0  0  0  0  0  0  0  0  0  0  0  0
    1.0441   -1.2835    0.0000 C   0  0  0  0  0  0  0  0  0  0  0  0
    2.3925   -1.9408    0.0000 O   0  0  0  0  0  0  0  0  0  0  0  0
    3.4342   -0.8616    0.0000 C   0  0  0  0  0  0  0  0  0  0  0  0
    4.9333   -0.9136    0.0000 C   0  0  0  0  0  0  0  0  0  0  0  0
    5.7280    0.3586    0.0000 C   0  0  0  0  0  0  0  0  0  0  0  0
    5.0235    1.6829    0.0000 C   0  0  0  0  0  0  0  0  0  0  0  0
    3.5244    1.7349    0.0000 C   0  0  0  0  0  0  0  0  0  0  0  0
    2.7298    0.4627    0.0000 C   0  0  0  0  0  0  0  0  0  0  0  0
    1.2526    0.2019    0.0000 C   0  0  0  0  0  0  0  0  0  0  0  0
    0.1734    1.2437    0.0000 C   0  0  0  0  0  0  0  0  0  0  0  0
    0.5360    2.6992    0.0000 O   0  0  0  0  0  0  0  0  0  0  0  0
   -1.2684    0.8299    0.0000 C   0  0  0  0  0  0  0  0  0  0  0  0
   -2.3477    1.8717    0.0000 C   0  0  0  0  0  0  0  0  0  0  0  0
   -3.7895    1.4580    0.0000 C   0  0  0  0  0  0  0  0  0  0  0  0
   -4.8687    2.4997    0.0000 Br  0  0  0  0  0  0  0  0  0  0  0  0
   -4.1520    0.0024    0.0000 C   0  0  0  0  0  0  0  0  0  0  0  0
   -5.5939   -0.4113    0.0000 O   0  0  0  0  0  0  0  0  0  0  0  0
   -3.0728   -1.0393    0.0000 C   0  0  0  0  0  0  0  0  0  0  0  0
   -3.4354   -2.4948    0.0000 Br  0  0  0  0  0  0  0  0  0  0  0  0
   -1.6310   -0.6256    0.0000 C   0  0  0  0  0  0  0  0  0  0  0  0
  1  2  1  0
  2  3  1  0
  3  4  1  0
  4  5  1  0
  5  6  2  0
  6  7  1  0
  7  8  2  0
  8  9  1  0
  9 10  2  0
 10 11  1  0
 11 12  1  0
 12 13  2  0
 12 14  1  0
 14 15  2  0
 15 16  1  0
 16 17  1  0
 16 18  2  0
 18 19  1  0
 18 20  1  0
 20 21  1  0
 20 22  2  0
 11  3  2  0
 22 14  1  0
 10  5  1  0
M  END
> <Identifier>
2333.0

> <DILI>
1

$$$$

     RDKit          2D

 18 19  0  0  0  0  0  0  0  0999 V2000
    2.0416   -3.7442    0.0000 C   0  0  0  0  0  0  0  0  0  0  0  0
    1.6813   -2.2881    0.0000 C   0  0  0  0  0  0  0  0  0  0  0  0
    2.7622   -1.2481    0.0000 C   0  0  0  0  0  0  0  0  0  0  0  0
    2.4019    0.2080    0.0000 C   0  0  0  0  0  0  0  0  0  0  0  0
    3.4828    1.2481    0.0000 C   0  0  0  0  0  0  0  0  0  0  0  0
    3.1225    2.7042    0.0000 C   0  0  0  0  0  0  0  0  0  0  0  0
    1.6813    3.1202    0.0000 C   0  0  0  0  0  0  0  0  0  0  0  0
    0.6005    2.0801    0.0000 C   0  0  0  0  0  0  0  0  0  0  0  0
    0.9608    0.6240    0.0000 C   0  0  0  0  0  0  0  0  0  0  0  0
    0.2402   -1.8721    0.0000 N   0  0  0  0  0  0  0  0  0  0  0  0
   -0.8407   -2.9122    0.0000 C   0  0  0  0  0  0  0  0  0  0  0  0
   -0.1201   -0.4160    0.0000 C   0  0  0  0  0  0  0  0  0  0  0  0
   -1.5612   -0.0000    0.0000 C   0  0  0  0  0  0  0  0  0  0  0  0
   -1.9215    1.4561    0.0000 C   0  0  0  0  0  0  0  0  0  0  0  0
   -3.3627    1.8721    0.0000 C   0  0  0  0  0  0  0  0  0  0  0  0
   -4.4436    0.8321    0.0000 C   0  0  0  0  0  0  0  0  0  0  0  0
   -4.0833   -0.6240    0.0000 C   0  0  0  0  0  0  0  0  0  0  0  0
   -2.6421   -1.0401    0.0000 C   0  0  0  0  0  0  0  0  0  0  0  0
  1  2  1  0
  2  3  1  0
  3  4  1  0
  4  5  2  0
  5  6  1  0
  6  7  2  0
  7  8  1  0
  8  9  2  0
  2 10  1  0
 10 11  1  0
 10 12  1  0
 12 13  1  0
 13 14  2  0
 14 15  1  0
 15 16  2  0
 16 17  1  0
 17 18  2  0
  9  4  1  0
 18 13  1  0
M  END
> <Identifier>
2341.0

> <DILI>
0

$$$$

     RDKit          2D

 11 10  0  0  0  0  0  0  0  0999 V2000
    1.0269    2.1831    0.0000 C   0  0  0  0  0  0  0  0  0  0  0  0
    0.1960    0.9342    0.0000 C   0  0  0  0  0  0  0  0  0  0  0  0
   -1.3010    1.0293    0.0000 C   0  0  0  0  0  0  0  0  0  0  0  0
   -2.1319   -0.2195    0.0000 N   0  0  0  0  0  4  0  0  0  0  0  0
   -3.3807    0.6114    0.0000 C   0  0  0  0  0  0  0  0  0  0  0  0
   -0.8830   -1.0504    0.0000 C   0  0  0  0  0  0  0  0  0  0  0  0
   -2.9627   -1.4684    0.0000 C   0  0  0  0  0  0  0  0  0  0  0  0
    0.8621   -0.4098    0.0000 O   0  0  0  0  0  0  0  0  0  0  0  0
    2.3591   -0.5049    0.0000 C   0  0  0  0  0  0  0  0  0  0  0  0
    3.0252   -1.8489    0.0000 N   0  0  0  0  0  0  0  0  0  0  0  0
    3.1900    0.7439    0.0000 O   0  0  0  0  0  0  0  0  0  0  0  0
  1  2  1  0
  2  3  1  0
  3  4  1  0
  4  5  1  0
  4  6  1  0
  4  7  1  0
  2  8  1  0
  8  9  1  0
  9 10  1  0
  9 11  2  0
M  CHG  1   4   1
M  END
> <Identifier>
2370.0

> <DILI>
0

$$$$

     RDKit          2D

 23 26  0  0  0  0  0  0  0  0999 V2000
    0.9221    2.5721    0.0000 O   0  0  0  0  0  0  0  0  0  0  0  0
    0.7504    1.0820    0.0000 C   0  0  0  0  0  0  0  0  0  0  0  0
   -0.7397    1.2536    0.0000 C   0  0  0  0  0  0  0  0  0  0  0  0
   -1.6335    0.0490    0.0000 C   0  0  0  0  0  0  0  0  0  0  0  0
   -3.1236    0.2206    0.0000 N   0  0  0  0  0  0  0  0  0  0  0  0
   -3.7200    1.5969    0.0000 C   0  0  0  0  0  0  0  0  0  0  0  0
   -5.2102    1.7686    0.0000 C   0  0  0  0  0  0  0  0  0  0  0  0
   -6.1039    0.5639    0.0000 C   0  0  0  0  0  0  0  0  0  0  0  0
   -5.5075   -0.8124    0.0000 C   0  0  0  0  0  0  0  0  0  0  0  0
   -4.0173   -0.9841    0.0000 C   0  0  0  0  0  0  0  0  0  0  0  0
    0.5788   -0.4082    0.0000 C   0  0  0  0  0  0  0  0  0  0  0  0
   -0.7976   -1.0046    0.0000 C   0  0  0  0  0  0  0  0  0  0  0  0
   -0.9692   -2.4947    0.0000 C   0  0  0  0  0  0  0  0  0  0  0  0
    0.2355   -3.3884    0.0000 C   0  0  0  0  0  0  0  0  0  0  0  0
    1.6118   -2.7920    0.0000 C   0  0  0  0  0  0  0  0  0  0  0  0
    1.7835   -1.3019    0.0000 C   0  0  0  0  0  0  0  0  0  0  0  0
    2.2406    0.9104    0.0000 C   0  0  0  0  0  0  0  0  0  0  0  0
    3.2553    2.0150    0.0000 C   0  0  0  0  0  0  0  0  0  0  0  0
    4.6195    1.3913    0.0000 C   0  0  0  0  0  0  0  0  0  0  0  0
    5.3565    0.0848    0.0000 C   0  0  0  0  0  0  0  0  0  0  0  0
    4.3418   -1.0198    0.0000 C   0  0  0  0  0  0  0  0  0  0  0  0
    2.9776   -0.3961    0.0000 C   0  0  0  0  0  0  0  0  0  0  0  0
    3.1492    1.0941    0.0000 C   0  0  0  0  0  0  0  0  0  0  0  0
  1  2  1  0
  2  3  1  0
  3  4  1  0
  4  5  1  0
  5  6  1  0
  6  7  1  0
  7  8  1  0
  8  9  1  0
  9 10  1  0
  2 11  1  0
 11 12  2  0
 12 13  1  0
 13 14  2  0
 14 15  1  0
 15 16  2  0
  2 17  1  0
 17 18  1  0
 18 19  1  0
 19 20  1  0
 20 21  2  0
 21 22  1  0
 22 23  1  0
 10  5  1  0
 16 11  1  0
 22 17  1  0
 23 19  1  0
M  END
> <Identifier>
2381.0

> <DILI>
0

$$$$

     RDKit          2D

 19 20  0  0  0  0  0  0  0  0999 V2000
   -2.6515   -2.8333    0.0000 O   0  0  0  0  0  0  0  0  0  0  0  0
   -2.5538   -1.3365    0.0000 C   0  0  0  0  0  0  0  0  0  0  0  0
   -3.8012   -0.5035    0.0000 C   0  0  0  0  0  0  0  0  0  0  0  0
   -5.1464   -1.1673    0.0000 Cl  0  0  0  0  0  0  0  0  0  0  0  0
   -3.7035    0.9933    0.0000 C   0  0  0  0  0  0  0  0  0  0  0  0
   -2.3584    1.6571    0.0000 C   0  0  0  0  0  0  0  0  0  0  0  0
   -2.2607    3.1540    0.0000 Cl  0  0  0  0  0  0  0  0  0  0  0  0
   -1.1110    0.8241    0.0000 C   0  0  0  0  0  0  0  0  0  0  0  0
   -1.2087   -0.6727    0.0000 C   0  0  0  0  0  0  0  0  0  0  0  0
    0.0387   -1.5057    0.0000 S   0  0  0  0  0  0  0  0  0  0  0  0
    1.3839   -0.8419    0.0000 C   0  0  0  0  0  0  0  0  0  0  0  0
    2.6313   -1.6750    0.0000 C   0  0  0  0  0  0  0  0  0  0  0  0
    3.9764   -1.0112    0.0000 C   0  0  0  0  0  0  0  0  0  0  0  0
    5.2239   -1.8442    0.0000 Cl  0  0  0  0  0  0  0  0  0  0  0  0
    4.0741    0.4857    0.0000 C   0  0  0  0  0  0  0  0  0  0  0  0
    2.8267    1.3187    0.0000 C   0  0  0  0  0  0  0  0  0  0  0  0
    2.9244    2.8155    0.0000 Cl  0  0  0  0  0  0  0  0  0  0  0  0
    1.4816    0.6549    0.0000 C   0  0  0  0  0  0  0  0  0  0  0  0
    0.2342    1.4879    0.0000 O   0  0  0  0  0  0  0  0  0  0  0  0
  1  2  1  0
  2  3  2  0
  3  4  1  0
  3  5  1  0
  5  6  2  0
  6  7  1  0
  6  8  1  0
  8  9  2  0
  9 10  1  0
 10 11  1  0
 11 12  2  0
 12 13  1  0
 13 14  1  0
 13 15  2  0
 15 16  1  0
 16 17  1  0
 16 18  2  0
 18 19  1  0
  9  2  1  0
 18 11  1  0
M  END
> <Identifier>
2406.0

> <DILI>
1

$$$$

     RDKit          2D

 25 26  0  0  0  0  0  0  0  0999 V2000
    5.7709   -3.2076    0.0000 C   0  0  0  0  0  0  0  0  0  0  0  0
    4.2711   -3.1843    0.0000 C   0  0  0  0  0  0  0  0  0  0  0  0
    3.5414   -1.8738    0.0000 C   0  0  0  0  0  0  0  0  0  0  0  0
    2.0415   -1.8505    0.0000 C   0  0  0  0  0  0  0  0  0  0  0  0
    1.3118   -0.5400    0.0000 N   0  0  0  0  0  0  0  0  0  0  0  0
   -0.1880   -0.5168    0.0000 C   0  0  0  0  0  0  0  0  0  0  0  0
   -0.9581   -1.8040    0.0000 C   0  0  0  0  0  0  0  0  0  0  0  0
   -2.4579   -1.7807    0.0000 C   0  0  0  0  0  0  0  0  0  0  0  0
   -3.2280   -3.0680    0.0000 C   0  0  0  0  0  0  0  0  0  0  0  0
   -2.4982   -4.3785    0.0000 O   0  0  0  0  0  0  0  0  0  0  0  0
   -4.7278   -3.0447    0.0000 O   0  0  0  0  0  0  0  0  0  0  0  0
   -3.1877   -0.4702    0.0000 C   0  0  0  0  0  0  0  0  0  0  0  0
   -2.4176    0.8170    0.0000 C   0  0  0  0  0  0  0  0  0  0  0  0
   -3.1474    2.1275    0.0000 S   0  0  0  0  0  0  0  0  0  0  0  0
   -3.8771    3.4381    0.0000 N   0  0  0  0  0  0  0  0  0  0  0  0
   -4.4579    1.3978    0.0000 O   0  0  0  0  0  0  0  0  0  0  0  0
   -1.8369    2.8573    0.0000 O   0  0  0  0  0  0  0  0  0  0  0  0
   -0.9178    0.7938    0.0000 C   0  0  0  0  0  0  0  0  0  0  0  0
   -0.1477    2.0810    0.0000 O   0  0  0  0  0  0  0  0  0  0  0  0
    1.3521    2.0577    0.0000 C   0  0  0  0  0  0  0  0  0  0  0  0
    2.0818    0.7472    0.0000 C   0  0  0  0  0  0  0  0  0  0  0  0
    3.5817    0.7239    0.0000 C   0  0  0  0  0  0  0  0  0  0  0  0
    4.3517    2.0112    0.0000 C   0  0  0  0  0  0  0  0  0  0  0  0
    3.6220    3.3217    0.0000 C   0  0  0  0  0  0  0  0  0  0  0  0
    2.1222    3.3450    0.0000 C   0  0  0  0  0  0  0  0  0  0  0  0
  1  2  1  0
  2  3  1  0
  3  4  1  0
  4  5  1  0
  5  6  1  0
  6  7  2  0
  7  8  1  0
  8  9  1  0
  9 10  2  0
  9 11  1  0
  8 12  2  0
 12 13  1  0
 13 14  1  0
 14 15  1  0
 14 16  2  0
 14 17  2  0
 13 18  2  0
 18 19  1  0
 19 20  1  0
 20 21  2  0
 21 22  1  0
 22 23  2  0
 23 24  1  0
 24 25  2  0
 18  6  1  0
 25 20  1  0
M  END
> <Identifier>
2471.0

> <DILI>
1

$$$$

     RDKit          2D

 21 22  0  0  0  0  0  0  0  0999 V2000
   -2.6470   -5.0080    0.0000 C   0  0  0  0  0  0  0  0  0  0  0  0
   -1.8329   -3.7482    0.0000 C   0  0  0  0  0  0  0  0  0  0  0  0
   -2.5169   -2.4132    0.0000 C   0  0  0  0  0  0  0  0  0  0  0  0
   -1.7028   -1.1534    0.0000 C   0  0  0  0  0  0  0  0  0  0  0  0
   -2.3868    0.1816    0.0000 N   0  0  0  0  0  0  0  0  0  0  0  0
   -3.8849    0.2567    0.0000 C   0  0  0  0  0  0  0  0  0  0  0  0
   -4.5689    1.5917    0.0000 C   0  0  0  0  0  0  0  0  0  0  0  0
   -3.7548    2.8516    0.0000 C   0  0  0  0  0  0  0  0  0  0  0  0
   -2.2566    2.7764    0.0000 C   0  0  0  0  0  0  0  0  0  0  0  0
   -1.5726    1.4415    0.0000 C   0  0  0  0  0  0  0  0  0  0  0  0
   -0.0745    1.3663    0.0000 C   0  0  0  0  0  0  0  0  0  0  0  0
    0.7396    2.6262    0.0000 O   0  0  0  0  0  0  0  0  0  0  0  0
    0.6095    0.0314    0.0000 N   0  0  0  0  0  0  0  0  0  0  0  0
    2.1076   -0.0437    0.0000 C   0  0  0  0  0  0  0  0  0  0  0  0
    2.7916   -1.3787    0.0000 C   0  0  0  0  0  0  0  0  0  0  0  0
    1.9775   -2.6386    0.0000 C   0  0  0  0  0  0  0  0  0  0  0  0
    4.2897   -1.4538    0.0000 C   0  0  0  0  0  0  0  0  0  0  0  0
    5.1038   -0.1940    0.0000 C   0  0  0  0  0  0  0  0  0  0  0  0
    4.4198    1.1410    0.0000 C   0  0  0  0  0  0  0  0  0  0  0  0
    2.9217    1.2161    0.0000 C   0  0  0  0  0  0  0  0  0  0  0  0
    2.2377    2.5511    0.0000 C   0  0  0  0  0  0  0  0  0  0  0  0
  1  2  1  0
  2  3  1  0
  3  4  1  0
  4  5  1  0
  5  6  1  0
  6  7  1  0
  7  8  1  0
  8  9  1  0
  9 10  1  0
 10 11  1  0
 11 12  2  0
 11 13  1  0
 13 14  1  0
 14 15  2  0
 15 16  1  0
 15 17  1  0
 17 18  2  0
 18 19  1  0
 19 20  2  0
 20 21  1  0
 10  5  1  0
 20 14  1  0
M  END
> <Identifier>
2474.0

> <DILI>
0

$$$$

     RDKit          2D

 28 31  0  0  0  0  0  0  0  0999 V2000
   -3.3017   -1.9895    0.0000 O   0  0  0  0  0  0  0  0  0  0  0  0
   -4.2932   -0.8639    0.0000 C   0  0  0  0  0  0  0  0  0  0  0  0
   -5.7637   -1.1599    0.0000 C   0  0  0  0  0  0  0  0  0  0  0  0
   -6.7553   -0.0343    0.0000 C   0  0  0  0  0  0  0  0  0  0  0  0
   -7.3802   -1.3979    0.0000 C   0  0  0  0  0  0  0  0  0  0  0  0
   -8.8702   -1.2249    0.0000 C   0  0  0  0  0  0  0  0  0  0  0  0
   -9.1661    0.2456    0.0000 C   0  0  0  0  0  0  0  0  0  0  0  0
   -7.8590    0.9814    0.0000 C   0  0  0  0  0  0  0  0  0  0  0  0
   -6.2763    1.3872    0.0000 C   0  0  0  0  0  0  0  0  0  0  0  0
   -4.8058    1.6831    0.0000 C   0  0  0  0  0  0  0  0  0  0  0  0
   -4.3268    3.1045    0.0000 O   0  0  0  0  0  0  0  0  0  0  0  0
   -3.8142    0.5575    0.0000 N   0  0  0  0  0  0  0  0  0  0  0  0
   -2.3437    0.8534    0.0000 C   0  0  0  0  0  0  0  0  0  0  0  0
   -1.3522   -0.2721    0.0000 C   0  0  0  0  0  0  0  0  0  0  0  0
    0.1183    0.0238    0.0000 C   0  0  0  0  0  0  0  0  0  0  0  0
    1.1099   -1.1017    0.0000 C   0  0  0  0  0  0  0  0  0  0  0  0
    2.5804   -0.8058    0.0000 N   0  0  0  0  0  0  0  0  0  0  0  0
    3.5719   -1.9314    0.0000 C   0  0  0  0  0  0  0  0  0  0  0  0
    5.0424   -1.6354    0.0000 C   0  0  0  0  0  0  0  0  0  0  0  0
    5.5214   -0.2140    0.0000 N   0  0  0  0  0  0  0  0  0  0  0  0
    6.9920    0.0819    0.0000 C   0  0  0  0  0  0  0  0  0  0  0  0
    7.9835   -1.0436    0.0000 N   0  0  0  0  0  0  0  0  0  0  0  0
    9.4540   -0.7477    0.0000 C   0  0  0  0  0  0  0  0  0  0  0  0
    9.9330    0.6738    0.0000 C   0  0  0  0  0  0  0  0  0  0  0  0
    8.9415    1.7993    0.0000 C   0  0  0  0  0  0  0  0  0  0  0  0
    7.4709    1.5034    0.0000 N   0  0  0  0  0  0  0  0  0  0  0  0
    4.5299    0.9116    0.0000 C   0  0  0  0  0  0  0  0  0  0  0  0
    3.0594    0.6157    0.0000 C   0  0  0  0  0  0  0  0  0  0  0  0
  1  2  2  0
  2  3  1  0
  3  4  1  0
  4  5  1  0
  5  6  1  0
  6  7  1  0
  7  8  1  0
  4  9  1  0
  9 10  1  0
 10 11  2  0
 10 12  1  0
 12 13  1  0
 13 14  1  0
 14 15  1  0
 15 16  1  0
 16 17  1  0
 17 18  1  0
 18 19  1  0
 19 20  1  0
 20 21  1  0
 21 22  2  0
 22 23  1  0
 23 24  2  0
 24 25  1  0
 25 26  2  0
 20 27  1  0
 27 28  1  0
 12  2  1  0
 28 17  1  0
  8  4  1  0
 26 21  1  0
M  END
> <Identifier>
2477.0

> <DILI>
0

$$$$

     RDKit          2D

 14 13  0  0  0  0  0  0  0  0999 V2000
   -5.9193    0.6320    0.0000 C   0  0  0  0  0  0  0  0  0  0  0  0
   -4.5621   -0.0067    0.0000 S   0  0  0  0  0  0  0  0  0  0  0  0
   -5.2008   -1.3639    0.0000 O   0  0  0  0  0  0  0  0  0  0  0  0
   -3.9234    1.3506    0.0000 O   0  0  0  0  0  0  0  0  0  0  0  0
   -3.2048   -0.6454    0.0000 O   0  0  0  0  0  0  0  0  0  0  0  0
   -1.9731    0.2107    0.0000 C   0  0  0  0  0  0  0  0  0  0  0  0
   -0.6159   -0.4280    0.0000 C   0  0  0  0  0  0  0  0  0  0  0  0
    0.6159    0.4280    0.0000 C   0  0  0  0  0  0  0  0  0  0  0  0
    1.9731   -0.2107    0.0000 C   0  0  0  0  0  0  0  0  0  0  0  0
    3.2048    0.6454    0.0000 O   0  0  0  0  0  0  0  0  0  0  0  0
    4.5621    0.0067    0.0000 S   0  0  0  0  0  0  0  0  0  0  0  0
    5.9193   -0.6320    0.0000 C   0  0  0  0  0  0  0  0  0  0  0  0
    3.9234   -1.3506    0.0000 O   0  0  0  0  0  0  0  0  0  0  0  0
    5.2008    1.3639    0.0000 O   0  0  0  0  0  0  0  0  0  0  0  0
  1  2  1  0
  2  3  2  0
  2  4  2  0
  2  5  1  0
  5  6  1  0
  6  7  1  0
  7  8  1  0
  8  9  1  0
  9 10  1  0
 10 11  1  0
 11 12  1  0
 11 13  2  0
 11 14  2  0
M  END
> <Identifier>
2478.0

> <DILI>
1

$$$$

     RDKit          2D

 33 34  0  0  0  0  0  0  0  0999 V2000
    8.7832   -3.4431    0.0000 C   0  0  0  0  0  0  0  0  0  0  0  0
    8.5749   -1.9576    0.0000 O   0  0  0  0  0  0  0  0  0  0  0  0
    7.1843   -1.3953    0.0000 C   0  0  0  0  0  0  0  0  0  0  0  0
    6.0020   -2.3184    0.0000 C   0  0  0  0  0  0  0  0  0  0  0  0
    4.6114   -1.7561    0.0000 C   0  0  0  0  0  0  0  0  0  0  0  0
    4.4031   -0.2706    0.0000 C   0  0  0  0  0  0  0  0  0  0  0  0
    3.0125    0.2917    0.0000 C   0  0  0  0  0  0  0  0  0  0  0  0
    2.8042    1.7771    0.0000 C   0  0  0  0  0  0  0  0  0  0  0  0
    1.4136    2.3395    0.0000 N   0  0  0  0  0  0  0  0  0  0  0  0
    1.2052    3.8249    0.0000 C   0  0  0  0  0  0  0  0  0  0  0  0
    0.2313    1.4163    0.0000 C   0  0  0  0  0  0  0  0  0  0  0  0
   -1.1593    1.9786    0.0000 C   0  0  0  0  0  0  0  0  0  0  0  0
   -2.3416    1.0555    0.0000 C   0  0  0  0  0  0  0  0  0  0  0  0
   -3.7322    1.6178    0.0000 C   0  0  0  0  0  0  0  0  0  0  0  0
   -3.1699    3.0084    0.0000 C   0  0  0  0  0  0  0  0  0  0  0  0
   -2.6076    4.3990    0.0000 N   0  0  0  0  0  0  0  0  0  0  0  0
   -4.2946    0.2272    0.0000 C   0  0  0  0  0  0  0  0  0  0  0  0
   -5.7800    0.0189    0.0000 C   0  0  0  0  0  0  0  0  0  0  0  0
   -6.3423   -1.3717    0.0000 C   0  0  0  0  0  0  0  0  0  0  0  0
   -5.4192   -2.5540    0.0000 C   0  0  0  0  0  0  0  0  0  0  0  0
   -5.9815   -3.9446    0.0000 O   0  0  0  0  0  0  0  0  0  0  0  0
   -7.4670   -4.1529    0.0000 C   0  0  0  0  0  0  0  0  0  0  0  0
   -3.9337   -2.3457    0.0000 C   0  0  0  0  0  0  0  0  0  0  0  0
   -3.0106   -3.5280    0.0000 O   0  0  0  0  0  0  0  0  0  0  0  0
   -1.5251   -3.3196    0.0000 C   0  0  0  0  0  0  0  0  0  0  0  0
   -3.3714   -0.9551    0.0000 C   0  0  0  0  0  0  0  0  0  0  0  0
   -5.1228    2.1802    0.0000 C   0  0  0  0  0  0  0  0  0  0  0  0
   -5.3312    3.6656    0.0000 C   0  0  0  0  0  0  0  0  0  0  0  0
   -6.3051    1.2570    0.0000 C   0  0  0  0  0  0  0  0  0  0  0  0
    5.5854    0.6525    0.0000 C   0  0  0  0  0  0  0  0  0  0  0  0
    6.9760    0.0902    0.0000 C   0  0  0  0  0  0  0  0  0  0  0  0
    8.1583    1.0133    0.0000 O   0  0  0  0  0  0  0  0  0  0  0  0
    7.9500    2.4988    0.0000 C   0  0  0  0  0  0  0  0  0  0  0  0
  1  2  1  0
  2  3  1  0
  3  4  2  0
  4  5  1  0
  5  6  2  0
  6  7  1  0
  7  8  1  0
  8  9  1  0
  9 10  1  0
  9 11  1  0
 11 12  1  0
 12 13  1  0
 13 14  1  0
 14 15  1  0
 15 16  3  0
 14 17  1  0
 17 18  2  0
 18 19  1  0
 19 20  2  0
 20 21  1  0
 21 22  1  0
 20 23  1  0
 23 24  1  0
 24 25  1  0
 23 26  2  0
 14 27  1  0
 27 28  1  0
 27 29  1  0
  6 30  1  0
 30 31  2  0
 31 32  1  0
 32 33  1  0
 31  3  1  0
 26 17  1  0
M  END
> <Identifier>
2520.0

> <DILI>
1

$$$$

     RDKit          2D

 18 20  0  0  0  0  0  0  0  0999 V2000
   -1.2990   -3.0104    0.0000 N   0  0  0  0  0  0  0  0  0  0  0  0
    0.0000   -2.2604    0.0000 C   0  0  0  0  0  0  0  0  0  0  0  0
    1.2990   -3.0104    0.0000 O   0  0  0  0  0  0  0  0  0  0  0  0
   -0.0000   -0.7604    0.0000 N   0  0  0  0  0  0  0  0  0  0  0  0
    1.3515   -0.1096    0.0000 C   0  0  0  0  0  0  0  0  0  0  0  0
    2.4510   -1.1298    0.0000 C   0  0  0  0  0  0  0  0  0  0  0  0
    3.8844   -0.6877    0.0000 C   0  0  0  0  0  0  0  0  0  0  0  0
    4.2182    0.7747    0.0000 C   0  0  0  0  0  0  0  0  0  0  0  0
    3.1186    1.7949    0.0000 C   0  0  0  0  0  0  0  0  0  0  0  0
    1.6852    1.3528    0.0000 C   0  0  0  0  0  0  0  0  0  0  0  0
    0.7500    2.5256    0.0000 C   0  0  0  0  0  0  0  0  0  0  0  0
   -0.7500    2.5256    0.0000 C   0  0  0  0  0  0  0  0  0  0  0  0
   -1.6852    1.3528    0.0000 C   0  0  0  0  0  0  0  0  0  0  0  0
   -3.1186    1.7949    0.0000 C   0  0  0  0  0  0  0  0  0  0  0  0
   -4.2182    0.7747    0.0000 C   0  0  0  0  0  0  0  0  0  0  0  0
   -3.8844   -0.6877    0.0000 C   0  0  0  0  0  0  0  0  0  0  0  0
   -2.4510   -1.1298    0.0000 C   0  0  0  0  0  0  0  0  0  0  0  0
   -1.3515   -0.1096    0.0000 C   0  0  0  0  0  0  0  0  0  0  0  0
  1  2  1  0
  2  3  2  0
  2  4  1  0
  4  5  1  0
  5  6  2  0
  6  7  1  0
  7  8  2  0
  8  9  1  0
  9 10  2  0
 10 11  1  0
 11 12  2  0
 12 13  1  0
 13 14  2  0
 14 15  1  0
 15 16  2  0
 16 17  1  0
 17 18  2  0
 18  4  1  0
 10  5  1  0
 18 13  1  0
M  END
> <Identifier>
2554.0

> <DILI>
1

$$$$

     RDKit          2D

 24 25  0  0  0  0  0  0  0  0999 V2000
   -9.4080   -0.7889    0.0000 C   0  0  0  0  0  0  0  0  0  0  0  0
   -8.0173   -1.3511    0.0000 C   0  0  0  0  0  0  0  0  0  0  0  0
   -6.8351   -0.4279    0.0000 N   0  0  0  0  0  0  0  0  0  0  0  0
   -7.0436    1.0576    0.0000 C   0  0  0  0  0  0  0  0  0  0  0  0
   -8.4342    1.6198    0.0000 C   0  0  0  0  0  0  0  0  0  0  0  0
   -5.4445   -0.9901    0.0000 C   0  0  0  0  0  0  0  0  0  0  0  0
   -4.2623   -0.0668    0.0000 C   0  0  0  0  0  0  0  0  0  0  0  0
   -2.8716   -0.6290    0.0000 O   0  0  0  0  0  0  0  0  0  0  0  0
   -1.6894    0.2942    0.0000 C   0  0  0  0  0  0  0  0  0  0  0  0
   -0.2987   -0.2680    0.0000 C   0  0  0  0  0  0  0  0  0  0  0  0
    0.8835    0.6552    0.0000 O   0  0  0  0  0  0  0  0  0  0  0  0
    2.2741    0.0930    0.0000 C   0  0  0  0  0  0  0  0  0  0  0  0
    2.4826   -1.3924    0.0000 O   0  0  0  0  0  0  0  0  0  0  0  0
    3.4564    1.0162    0.0000 C   0  0  0  0  0  0  0  0  0  0  0  0
    4.2510   -0.2560    0.0000 C   0  0  0  0  0  0  0  0  0  0  0  0
    3.5465   -1.5803    0.0000 C   0  0  0  0  0  0  0  0  0  0  0  0
    4.3411   -2.8525    0.0000 C   0  0  0  0  0  0  0  0  0  0  0  0
    5.8402   -2.8005    0.0000 C   0  0  0  0  0  0  0  0  0  0  0  0
    6.5447   -1.4762    0.0000 C   0  0  0  0  0  0  0  0  0  0  0  0
    5.7501   -0.2040    0.0000 C   0  0  0  0  0  0  0  0  0  0  0  0
    2.4146    2.0955    0.0000 C   0  0  0  0  0  0  0  0  0  0  0  0
    3.1191    3.4197    0.0000 C   0  0  0  0  0  0  0  0  0  0  0  0
    4.5963    3.1590    0.0000 C   0  0  0  0  0  0  0  0  0  0  0  0
    4.8047    1.6735    0.0000 C   0  0  0  0  0  0  0  0  0  0  0  0
  1  2  1  0
  2  3  1  0
  3  4  1  0
  4  5  1  0
  3  6  1  0
  6  7  1  0
  7  8  1  0
  8  9  1  0
  9 10  1  0
 10 11  1  0
 11 12  1  0
 12 13  2  0
 12 14  1  0
 14 15  1  0
 15 16  2  0
 16 17  1  0
 17 18  2  0
 18 19  1  0
 19 20  2  0
 14 21  1  0
 21 22  1  0
 22 23  1  0
 23 24  1  0
 24 14  1  0
 20 15  1  0
M  END
> <Identifier>
2562.0

> <DILI>
0

$$$$

     RDKit          2D

 20 21  0  0  0  0  0  0  0  0999 V2000
   -5.7161   -2.8365    0.0000 C   0  0  0  0  0  0  0  0  0  0  0  0
   -4.6981   -1.7348    0.0000 N   0  0  0  0  0  0  0  0  0  0  0  0
   -5.1432   -0.3024    0.0000 C   0  0  0  0  0  0  0  0  0  0  0  0
   -3.2350   -2.0655    0.0000 C   0  0  0  0  0  0  0  0  0  0  0  0
   -2.2171   -0.9638    0.0000 C   0  0  0  0  0  0  0  0  0  0  0  0
   -0.7540   -1.2946    0.0000 O   0  0  0  0  0  0  0  0  0  0  0  0
    0.2640   -0.1929    0.0000 C   0  0  0  0  0  0  0  0  0  0  0  0
    1.7271   -0.5236    0.0000 C   0  0  0  0  0  0  0  0  0  0  0  0
    2.1722   -1.9560    0.0000 C   0  0  0  0  0  0  0  0  0  0  0  0
    3.6353   -2.2867    0.0000 C   0  0  0  0  0  0  0  0  0  0  0  0
    4.6532   -1.1850    0.0000 C   0  0  0  0  0  0  0  0  0  0  0  0
    6.1163   -1.5158    0.0000 Cl  0  0  0  0  0  0  0  0  0  0  0  0
    4.2081    0.2474    0.0000 C   0  0  0  0  0  0  0  0  0  0  0  0
    2.7450    0.5781    0.0000 C   0  0  0  0  0  0  0  0  0  0  0  0
   -0.1812    1.2396    0.0000 C   0  0  0  0  0  0  0  0  0  0  0  0
    0.8368    2.3413    0.0000 C   0  0  0  0  0  0  0  0  0  0  0  0
    0.3917    3.7737    0.0000 C   0  0  0  0  0  0  0  0  0  0  0  0
   -1.0714    4.1044    0.0000 C   0  0  0  0  0  0  0  0  0  0  0  0
   -2.0894    3.0027    0.0000 C   0  0  0  0  0  0  0  0  0  0  0  0
   -1.6442    1.5703    0.0000 N   0  0  0  0  0  0  0  0  0  0  0  0
  1  2  1  0
  2  3  1  0
  2  4  1  0
  4  5  1  0
  5  6  1  0
  6  7  1  0
  7  8  1  0
  8  9  2  0
  9 10  1  0
 10 11  2  0
 11 12  1  0
 11 13  1  0
 13 14  2  0
  7 15  1  0
 15 16  2  0
 16 17  1  0
 17 18  2  0
 18 19  1  0
 19 20  2  0
 14  8  1  0
 20 15  1  0
M  END
> <Identifier>
2564.0

> <DILI>
0

$$$$

     RDKit          2D

 18 17  0  0  0  0  0  0  0  0999 V2000
    3.2326    3.7627    0.0000 C   0  0  0  0  0  0  0  0  0  0  0  0
    2.8735    2.3063    0.0000 C   0  0  0  0  0  0  0  0  0  0  0  0
    1.4328    1.8890    0.0000 C   0  0  0  0  0  0  0  0  0  0  0  0
    1.0737    0.4326    0.0000 C   0  0  0  0  0  0  0  0  0  0  0  0
    0.7147   -1.0238    0.0000 C   0  0  0  0  0  0  0  0  0  0  0  0
    2.5301    0.0736    0.0000 C   0  0  0  0  0  0  0  0  0  0  0  0
    2.9474   -1.3672    0.0000 O   0  0  0  0  0  0  0  0  0  0  0  0
    4.4038   -1.7262    0.0000 C   0  0  0  0  0  0  0  0  0  0  0  0
    4.8211   -3.1670    0.0000 N   0  0  0  0  0  0  0  0  0  0  0  0
    5.4430   -0.6444    0.0000 O   0  0  0  0  0  0  0  0  0  0  0  0
   -0.3827    0.7916    0.0000 C   0  0  0  0  0  0  0  0  0  0  0  0
   -1.4218   -0.2902    0.0000 O   0  0  0  0  0  0  0  0  0  0  0  0
   -2.8782    0.0689    0.0000 C   0  0  0  0  0  0  0  0  0  0  0  0
   -3.2955    1.5097    0.0000 O   0  0  0  0  0  0  0  0  0  0  0  0
   -3.9173   -1.0129    0.0000 N   0  0  0  0  0  0  0  0  0  0  0  0
   -5.3737   -0.6539    0.0000 C   0  0  0  0  0  0  0  0  0  0  0  0
   -6.4128   -1.7357    0.0000 C   0  0  0  0  0  0  0  0  0  0  0  0
   -5.7910    0.7869    0.0000 C   0  0  0  0  0  0  0  0  0  0  0  0
  1  2  1  0
  2  3  1  0
  3  4  1  0
  4  5  1  0
  4  6  1  0
  6  7  1  0
  7  8  1  0
  8  9  1  0
  8 10  2  0
  4 11  1  0
 11 12  1  0
 12 13  1  0
 13 14  2  0
 13 15  1  0
 15 16  1  0
 16 17  1  0
 16 18  1  0
M  END
> <Identifier>
2576.0

> <DILI>
0

$$$$

     RDKit          2D

 25 27  0  0  0  0  0  0  0  0999 V2000
   -5.2731   -2.8865    0.0000 C   0  0  0  0  0  0  0  0  0  0  0  0
   -4.0823   -1.9743    0.0000 C   0  0  0  0  0  0  0  0  0  0  0  0
   -4.2769   -0.4869    0.0000 C   0  0  0  0  0  0  0  0  0  0  0  0
   -5.6623    0.0882    0.0000 C   0  0  0  0  0  0  0  0  0  0  0  0
   -6.8530   -0.8240    0.0000 O   0  0  0  0  0  0  0  0  0  0  0  0
   -5.8569    1.5755    0.0000 O   0  0  0  0  0  0  0  0  0  0  0  0
   -3.0861    0.4252    0.0000 N   0  0  0  0  0  0  0  0  0  0  0  0
   -2.5110    1.8106    0.0000 C   0  0  0  0  0  0  0  0  0  0  0  0
   -3.0839    3.1969    0.0000 O   0  0  0  0  0  0  0  0  0  0  0  0
   -1.1257    1.2355    0.0000 C   0  0  0  0  0  0  0  0  0  0  0  0
    0.2606    1.8084    0.0000 N   0  0  0  0  0  0  0  0  0  0  0  0
    1.4499    0.8943    0.0000 C   0  0  0  0  0  0  0  0  0  0  0  0
    1.2529   -0.5927    0.0000 O   0  0  0  0  0  0  0  0  0  0  0  0
    2.8362    1.4672    0.0000 C   0  0  0  0  0  0  0  0  0  0  0  0
    3.0332    2.9542    0.0000 N   0  0  0  0  0  0  0  0  0  0  0  0
    4.0255    0.5531    0.0000 C   0  0  0  0  0  0  0  0  0  0  0  0
    3.8285   -0.9339    0.0000 C   0  0  0  0  0  0  0  0  0  0  0  0
    5.0178   -1.8480    0.0000 C   0  0  0  0  0  0  0  0  0  0  0  0
    6.4041   -1.2751    0.0000 C   0  0  0  0  0  0  0  0  0  0  0  0
    7.5934   -2.1892    0.0000 O   0  0  0  0  0  0  0  0  0  0  0  0
    6.6011    0.2119    0.0000 C   0  0  0  0  0  0  0  0  0  0  0  0
    5.4118    1.1260    0.0000 C   0  0  0  0  0  0  0  0  0  0  0  0
   -1.7008   -0.1499    0.0000 C   0  0  0  0  0  0  0  0  0  0  0  0
   -1.5062   -1.6372    0.0000 S   0  0  0  0  0  0  0  0  0  0  0  0
   -2.6969   -2.5494    0.0000 C   0  0  0  0  0  0  0  0  0  0  0  0
  1  2  1  0
  2  3  2  0
  3  4  1  0
  4  5  2  0
  4  6  1  0
  3  7  1  0
  7  8  1  0
  8  9  2  0
  8 10  1  0
 10 11  1  0
 11 12  1  0
 12 13  2  0
 12 14  1  0
 14 15  1  0
 14 16  1  0
 16 17  2  0
 17 18  1  0
 18 19  2  0
 19 20  1  0
 19 21  1  0
 21 22  2  0
 10 23  1  0
 23 24  1  0
 24 25  1  0
 25  2  1  0
 23  7  1  0
 22 16  1  0
M  END
> <Identifier>
2610.0

> <DILI>
1

$$$$

     RDKit          2D

 26 28  0  0  0  0  0  0  0  0999 V2000
    0.7470   -5.9541    0.0000 C   0  0  0  0  0  0  0  0  0  0  0  0
    0.1288   -4.5874    0.0000 C   0  0  0  0  0  0  0  0  0  0  0  0
   -1.3638   -4.4394    0.0000 C   0  0  0  0  0  0  0  0  0  0  0  0
   -1.9820   -3.0726    0.0000 C   0  0  0  0  0  0  0  0  0  0  0  0
   -1.1074   -1.8540    0.0000 C   0  0  0  0  0  0  0  0  0  0  0  0
   -1.7255   -0.4872    0.0000 C   0  0  0  0  0  0  0  0  0  0  0  0
   -3.1946   -0.1840    0.0000 C   0  0  0  0  0  0  0  0  0  0  0  0
   -3.3601    1.3069    0.0000 C   0  0  0  0  0  0  0  0  0  0  0  0
   -4.6635    2.0492    0.0000 C   0  0  0  0  0  0  0  0  0  0  0  0
   -5.9669    2.7916    0.0000 F   0  0  0  0  0  0  0  0  0  0  0  0
   -3.9211    3.3527    0.0000 F   0  0  0  0  0  0  0  0  0  0  0  0
   -5.4059    0.7458    0.0000 F   0  0  0  0  0  0  0  0  0  0  0  0
   -1.9934    1.9250    0.0000 N   0  0  0  0  0  0  0  0  0  0  0  0
   -0.9832    0.8162    0.0000 N   0  0  0  0  0  0  0  0  0  0  0  0
    0.5077    0.9817    0.0000 C   0  0  0  0  0  0  0  0  0  0  0  0
    1.3965   -0.2266    0.0000 C   0  0  0  0  0  0  0  0  0  0  0  0
    2.8873   -0.0611    0.0000 C   0  0  0  0  0  0  0  0  0  0  0  0
    3.4894    1.3128    0.0000 C   0  0  0  0  0  0  0  0  0  0  0  0
    4.9802    1.4783    0.0000 S   0  0  0  0  0  0  0  0  0  0  0  0
    6.4710    1.6438    0.0000 N   0  0  0  0  0  0  0  0  0  0  0  0
    5.1457   -0.0125    0.0000 O   0  0  0  0  0  0  0  0  0  0  0  0
    4.8147    2.9691    0.0000 O   0  0  0  0  0  0  0  0  0  0  0  0
    2.6006    2.5211    0.0000 C   0  0  0  0  0  0  0  0  0  0  0  0
    1.1098    2.3556    0.0000 C   0  0  0  0  0  0  0  0  0  0  0  0
    0.3853   -2.0020    0.0000 C   0  0  0  0  0  0  0  0  0  0  0  0
    1.0034   -3.3687    0.0000 C   0  0  0  0  0  0  0  0  0  0  0  0
  1  2  1  0
  2  3  2  0
  3  4  1  0
  4  5  2  0
  5  6  1  0
  6  7  2  0
  7  8  1  0
  8  9  1  0
  9 10  1  0
  9 11  1  0
  9 12  1  0
  8 13  2  0
 13 14  1  0
 14 15  1  0
 15 16  2  0
 16 17  1  0
 17 18  2  0
 18 19  1  0
 19 20  1  0
 19 21  2  0
 19 22  2  0
 18 23  1  0
 23 24  2  0
  5 25  1  0
 25 26  2  0
 26  2  1  0
 14  6  1  0
 24 15  1  0
M  END
> <Identifier>
2662.0

> <DILI>
1

$$$$

     RDKit          2D

  7  6  0  0  0  0  0  0  0  0999 V2000
   -1.6071    1.2990    0.0000 O   0  0  0  0  0  0  0  0  0  0  0  0
   -0.8571   -0.0000    0.0000 C   0  0  0  0  0  0  0  0  0  0  0  0
   -1.6071   -1.2990    0.0000 O   0  0  0  0  0  0  0  0  0  0  0  0
    0.6429   -0.0000    0.0000 C   0  0  0  0  0  0  0  0  0  0  0  0
    2.1429    0.0000    0.0000 Cl  0  0  0  0  0  0  0  0  0  0  0  0
    0.6429   -1.5000    0.0000 Cl  0  0  0  0  0  0  0  0  0  0  0  0
    0.6429    1.5000    0.0000 Cl  0  0  0  0  0  0  0  0  0  0  0  0
  1  2  1  0
  2  3  1  0
  2  4  1  0
  4  5  1  0
  4  6  1  0
  4  7  1  0
M  END
> <Identifier>
2707.0

> <DILI>
0

$$$$

     RDKit          2D

 21 23  0  0  0  0  0  0  0  0999 V2000
    5.1962   -2.7143    0.0000 C   0  0  0  0  0  0  0  0  0  0  0  0
    3.8971   -1.9643    0.0000 N   0  0  0  0  0  0  0  0  0  0  0  0
    2.5981   -2.7143    0.0000 C   0  0  0  0  0  0  0  0  0  0  0  0
    1.2990   -1.9643    0.0000 C   0  0  0  0  0  0  0  0  0  0  0  0
    1.2990   -0.4643    0.0000 N   0  0  0  0  0  0  0  0  0  0  0  0
    0.0000    0.2857    0.0000 C   0  0  0  0  0  0  0  0  0  0  0  0
    0.0000    1.7857    0.0000 C   0  0  0  0  0  0  0  0  0  0  0  0
    1.2990    2.5357    0.0000 C   0  0  0  0  0  0  0  0  0  0  0  0
    1.2990    4.0357    0.0000 C   0  0  0  0  0  0  0  0  0  0  0  0
    0.0000    4.7857    0.0000 C   0  0  0  0  0  0  0  0  0  0  0  0
   -1.2990    4.0357    0.0000 C   0  0  0  0  0  0  0  0  0  0  0  0
   -1.2990    2.5357    0.0000 C   0  0  0  0  0  0  0  0  0  0  0  0
   -1.2990   -0.4643    0.0000 C   0  0  0  0  0  0  0  0  0  0  0  0
   -2.5981    0.2857    0.0000 C   0  0  0  0  0  0  0  0  0  0  0  0
   -3.8971   -0.4643    0.0000 C   0  0  0  0  0  0  0  0  0  0  0  0
   -3.8971   -1.9643    0.0000 C   0  0  0  0  0  0  0  0  0  0  0  0
   -5.1962   -2.7143    0.0000 Cl  0  0  0  0  0  0  0  0  0  0  0  0
   -2.5981   -2.7143    0.0000 C   0  0  0  0  0  0  0  0  0  0  0  0
   -1.2990   -1.9643    0.0000 C   0  0  0  0  0  0  0  0  0  0  0  0
    2.5981    0.2857    0.0000 C   0  0  0  0  0  0  0  0  0  0  0  0
    3.8971   -0.4643    0.0000 C   0  0  0  0  0  0  0  0  0  0  0  0
  1  2  1  0
  2  3  1  0
  3  4  1  0
  4  5  1  0
  5  6  1  0
  6  7  1  0
  7  8  2  0
  8  9  1  0
  9 10  2  0
 10 11  1  0
 11 12  2  0
  6 13  1  0
 13 14  2  0
 14 15  1  0
 15 16  2  0
 16 17  1  0
 16 18  1  0
 18 19  2  0
  5 20  1  0
 20 21  1  0
 21  2  1  0
 12  7  1  0
 19 13  1  0
M  END
> <Identifier>
2710.0

> <DILI>
0

$$$$

     RDKit          2D

 17 18  0  0  0  0  0  0  0  0999 V2000
   -0.8885   -2.4991    0.0000 C   0  0  0  0  0  0  0  0  0  0  0  0
   -1.5319   -1.1441    0.0000 N   0  0  0  0  0  0  0  0  0  0  0  0
   -3.0271   -1.0238    0.0000 C   0  0  0  0  0  0  0  0  0  0  0  0
   -3.8789   -2.2585    0.0000 O   0  0  0  0  0  0  0  0  0  0  0  0
   -3.6705    0.3312    0.0000 C   0  0  0  0  0  0  0  0  0  0  0  0
   -2.8187    1.5659    0.0000 C   0  0  0  0  0  0  0  0  0  0  0  0
   -1.3236    1.4456    0.0000 S   0  0  0  0  0  0  0  0  0  0  0  0
   -1.4647    2.9389    0.0000 O   0  0  0  0  0  0  0  0  0  0  0  0
    0.1226    1.8439    0.0000 O   0  0  0  0  0  0  0  0  0  0  0  0
   -0.6802    0.0906    0.0000 C   0  0  0  0  0  0  0  0  0  0  0  0
    0.8150   -0.0297    0.0000 C   0  0  0  0  0  0  0  0  0  0  0  0
    1.4584   -1.3847    0.0000 C   0  0  0  0  0  0  0  0  0  0  0  0
    2.9536   -1.5050    0.0000 C   0  0  0  0  0  0  0  0  0  0  0  0
    3.8053   -0.2703    0.0000 C   0  0  0  0  0  0  0  0  0  0  0  0
    5.3005   -0.3906    0.0000 Cl  0  0  0  0  0  0  0  0  0  0  0  0
    3.1619    1.0847    0.0000 C   0  0  0  0  0  0  0  0  0  0  0  0
    1.6668    1.2050    0.0000 C   0  0  0  0  0  0  0  0  0  0  0  0
  1  2  1  0
  2  3  1  0
  3  4  2  0
  3  5  1  0
  5  6  1  0
  6  7  1  0
  7  8  2  0
  7  9  2  0
  7 10  1  0
 10 11  1  0
 11 12  2  0
 12 13  1  0
 13 14  2  0
 14 15  1  0
 14 16  1  0
 16 17  2  0
 10  2  1  0
 17 11  1  0
M  END
> <Identifier>
2717.0

> <DILI>
1

$$$$

     RDKit          2D

 19 20  0  0  0  0  0  0  0  0999 V2000
   -4.9080    2.2582    0.0000 C   0  0  0  0  0  0  0  0  0  0  0  0
   -3.4178    2.4292    0.0000 N   0  0  0  0  0  0  0  0  0  0  0  0
   -2.8208    3.8053    0.0000 C   0  0  0  0  0  0  0  0  0  0  0  0
   -2.5245    1.2242    0.0000 C   0  0  0  0  0  0  0  0  0  0  0  0
   -1.0343    1.3953    0.0000 C   0  0  0  0  0  0  0  0  0  0  0  0
   -0.1410    0.1903    0.0000 C   0  0  0  0  0  0  0  0  0  0  0  0
    1.3492    0.3613    0.0000 C   0  0  0  0  0  0  0  0  0  0  0  0
    2.2424   -0.8437    0.0000 C   0  0  0  0  0  0  0  0  0  0  0  0
    3.7326   -0.6726    0.0000 C   0  0  0  0  0  0  0  0  0  0  0  0
    4.3296    0.7035    0.0000 C   0  0  0  0  0  0  0  0  0  0  0  0
    5.8198    0.8746    0.0000 Cl  0  0  0  0  0  0  0  0  0  0  0  0
    3.4363    1.9085    0.0000 C   0  0  0  0  0  0  0  0  0  0  0  0
    1.9461    1.7374    0.0000 C   0  0  0  0  0  0  0  0  0  0  0  0
   -0.7380   -1.1858    0.0000 C   0  0  0  0  0  0  0  0  0  0  0  0
   -2.2282   -1.3569    0.0000 C   0  0  0  0  0  0  0  0  0  0  0  0
   -2.8252   -2.7330    0.0000 C   0  0  0  0  0  0  0  0  0  0  0  0
   -1.9319   -3.9380    0.0000 C   0  0  0  0  0  0  0  0  0  0  0  0
   -0.4417   -3.7670    0.0000 C   0  0  0  0  0  0  0  0  0  0  0  0
    0.1553   -2.3909    0.0000 N   0  0  0  0  0  0  0  0  0  0  0  0
  1  2  1  0
  2  3  1  0
  2  4  1  0
  4  5  1  0
  5  6  1  0
  6  7  1  0
  7  8  2  0
  8  9  1  0
  9 10  2  0
 10 11  1  0
 10 12  1  0
 12 13  2  0
  6 14  1  0
 14 15  2  0
 15 16  1  0
 16 17  2  0
 17 18  1  0
 18 19  2  0
 13  7  1  0
 19 14  1  0
M  END
> <Identifier>
2725.0

> <DILI>
0

$$$$

     RDKit          2D

 17 17  0  0  0  0  0  0  0  0999 V2000
    7.2271    0.9510    0.0000 C   0  0  0  0  0  0  0  0  0  0  0  0
    6.1248   -0.0663    0.0000 C   0  0  0  0  0  0  0  0  0  0  0  0
    4.6927    0.3796    0.0000 C   0  0  0  0  0  0  0  0  0  0  0  0
    3.5904   -0.6377    0.0000 N   0  0  0  0  0  0  0  0  0  0  0  0
    2.1582   -0.1918    0.0000 C   0  0  0  0  0  0  0  0  0  0  0  0
    1.8283    1.2715    0.0000 O   0  0  0  0  0  0  0  0  0  0  0  0
    1.0559   -1.2091    0.0000 N   0  0  0  0  0  0  0  0  0  0  0  0
   -0.3763   -0.7632    0.0000 S   0  0  0  0  0  0  0  0  0  0  0  0
   -0.8222   -2.1954    0.0000 O   0  0  0  0  0  0  0  0  0  0  0  0
    0.0697    0.6690    0.0000 O   0  0  0  0  0  0  0  0  0  0  0  0
   -1.8084   -0.3173    0.0000 C   0  0  0  0  0  0  0  0  0  0  0  0
   -2.9107   -1.3346    0.0000 C   0  0  0  0  0  0  0  0  0  0  0  0
   -4.3429   -0.8887    0.0000 C   0  0  0  0  0  0  0  0  0  0  0  0
   -4.6728    0.5746    0.0000 C   0  0  0  0  0  0  0  0  0  0  0  0
   -6.1050    1.0205    0.0000 Cl  0  0  0  0  0  0  0  0  0  0  0  0
   -3.5705    1.5919    0.0000 C   0  0  0  0  0  0  0  0  0  0  0  0
   -2.1383    1.1460    0.0000 C   0  0  0  0  0  0  0  0  0  0  0  0
  1  2  1  0
  2  3  1  0
  3  4  1  0
  4  5  1  0
  5  6  2  0
  5  7  1  0
  7  8  1  0
  8  9  2  0
  8 10  2  0
  8 11  1  0
 11 12  2  0
 12 13  1  0
 13 14  2  0
 14 15  1  0
 14 16  1  0
 16 17  2  0
 17 11  1  0
M  END
> <Identifier>
2727.0

> <DILI>
1

$$$$

     RDKit          2D

 11 12  0  0  0  0  0  0  0  0999 V2000
   -4.0417   -0.3629    0.0000 O   0  0  0  0  0  0  0  0  0  0  0  0
   -2.5531   -0.1786    0.0000 C   0  0  0  0  0  0  0  0  0  0  0  0
   -1.5290   -1.2746    0.0000 N   0  0  0  0  0  0  0  0  0  0  0  0
   -0.1702   -0.6394    0.0000 C   0  0  0  0  0  0  0  0  0  0  0  0
    1.2112   -1.2241    0.0000 C   0  0  0  0  0  0  0  0  0  0  0  0
    2.4082   -0.3202    0.0000 C   0  0  0  0  0  0  0  0  0  0  0  0
    3.7896   -0.9050    0.0000 Cl  0  0  0  0  0  0  0  0  0  0  0  0
    2.2240    1.1684    0.0000 C   0  0  0  0  0  0  0  0  0  0  0  0
    0.8426    1.7532    0.0000 C   0  0  0  0  0  0  0  0  0  0  0  0
   -0.3544    0.8493    0.0000 C   0  0  0  0  0  0  0  0  0  0  0  0
   -1.8272    1.1340    0.0000 O   0  0  0  0  0  0  0  0  0  0  0  0
  1  2  2  0
  2  3  1  0
  3  4  1  0
  4  5  2  0
  5  6  1  0
  6  7  1  0
  6  8  2  0
  8  9  1  0
  9 10  2  0
 10 11  1  0
 11  2  1  0
 10  4  1  0
M  END
> <Identifier>
2733.0

> <DILI>
1

$$$$

     RDKit          2D

 15 16  0  0  0  0  0  0  0  0999 V2000
    3.1778   -2.7967    0.0000 C   0  0  0  0  0  0  0  0  0  0  0  0
    2.4382   -1.4917    0.0000 C   0  0  0  0  0  0  0  0  0  0  0  0
    0.9382   -1.4798    0.0000 C   0  0  0  0  0  0  0  0  0  0  0  0
    0.1986   -0.1748    0.0000 C   0  0  0  0  0  0  0  0  0  0  0  0
   -1.3013   -0.1628    0.0000 C   0  0  0  0  0  0  0  0  0  0  0  0
   -2.0409    1.1422    0.0000 C   0  0  0  0  0  0  0  0  0  0  0  0
   -3.5409    1.1541    0.0000 C   0  0  0  0  0  0  0  0  0  0  0  0
   -4.3012   -0.1389    0.0000 C   0  0  0  0  0  0  0  0  0  0  0  0
   -3.5616   -1.4439    0.0000 C   0  0  0  0  0  0  0  0  0  0  0  0
   -2.0617   -1.4558    0.0000 C   0  0  0  0  0  0  0  0  0  0  0  0
    0.9590    1.1182    0.0000 N   0  0  0  0  0  0  0  0  0  0  0  0
    0.2193    2.4232    0.0000 O   0  0  0  0  0  0  0  0  0  0  0  0
    2.4589    1.1062    0.0000 C   0  0  0  0  0  0  0  0  0  0  0  0
    3.2193    2.3993    0.0000 O   0  0  0  0  0  0  0  0  0  0  0  0
    3.1985   -0.1987    0.0000 C   0  0  0  0  0  0  0  0  0  0  0  0
  1  2  1  0
  2  3  1  0
  3  4  2  0
  4  5  1  0
  5  6  1  0
  6  7  1  0
  7  8  1  0
  8  9  1  0
  9 10  1  0
  4 11  1  0
 11 12  1  0
 11 13  1  0
 13 14  2  0
 13 15  1  0
 15  2  2  0
 10  5  1  0
M  END
> <Identifier>
2749.0

> <DILI>
0

$$$$

     RDKit          2D

 27 30  0  0  0  0  0  0  0  0999 V2000
   -8.8734   -1.4930    0.0000 O   0  0  0  0  0  0  0  0  0  0  0  0
   -7.6109   -0.6831    0.0000 C   0  0  0  0  0  0  0  0  0  0  0  0
   -7.6810    0.8152    0.0000 C   0  0  0  0  0  0  0  0  0  0  0  0
   -6.4185    1.6252    0.0000 C   0  0  0  0  0  0  0  0  0  0  0  0
   -5.0858    0.9367    0.0000 C   0  0  0  0  0  0  0  0  0  0  0  0
   -3.8232    1.7467    0.0000 C   0  0  0  0  0  0  0  0  0  0  0  0
   -2.4906    1.0582    0.0000 C   0  0  0  0  0  0  0  0  0  0  0  0
   -1.2280    1.8681    0.0000 O   0  0  0  0  0  0  0  0  0  0  0  0
    0.1047    1.1797    0.0000 C   0  0  0  0  0  0  0  0  0  0  0  0
    1.3672    1.9896    0.0000 C   0  0  0  0  0  0  0  0  0  0  0  0
    2.6999    1.3012    0.0000 C   0  0  0  0  0  0  0  0  0  0  0  0
    3.9625    2.1111    0.0000 C   0  0  0  0  0  0  0  0  0  0  0  0
    5.2951    1.4227    0.0000 C   0  0  0  0  0  0  0  0  0  0  0  0
    6.6354    2.0962    0.0000 N   0  0  0  0  0  0  0  0  0  0  0  0
    7.6902    1.0296    0.0000 N   0  0  0  0  0  0  0  0  0  0  0  0
    7.0017   -0.3031    0.0000 N   0  0  0  0  0  0  0  0  0  0  0  0
    5.5215   -0.0601    0.0000 N   0  0  0  0  0  0  0  0  0  0  0  0
    4.4550   -1.1149    0.0000 C   0  0  0  0  0  0  0  0  0  0  0  0
    3.0083   -0.7186    0.0000 C   0  0  0  0  0  0  0  0  0  0  0  0
    1.9417   -1.7733    0.0000 C   0  0  0  0  0  0  0  0  0  0  0  0
    2.3218   -3.2243    0.0000 C   0  0  0  0  0  0  0  0  0  0  0  0
    3.7685   -3.6206    0.0000 C   0  0  0  0  0  0  0  0  0  0  0  0
    4.8351   -2.5659    0.0000 C   0  0  0  0  0  0  0  0  0  0  0  0
   -2.4204   -0.4401    0.0000 C   0  0  0  0  0  0  0  0  0  0  0  0
   -3.6830   -1.2501    0.0000 C   0  0  0  0  0  0  0  0  0  0  0  0
   -5.0156   -0.5616    0.0000 C   0  0  0  0  0  0  0  0  0  0  0  0
   -6.2782   -1.3716    0.0000 N   0  0  0  0  0  0  0  0  0  0  0  0
  1  2  2  0
  2  3  1  0
  3  4  1  0
  4  5  1  0
  5  6  2  0
  6  7  1  0
  7  8  1  0
  8  9  1  0
  9 10  1  0
 10 11  1  0
 11 12  1  0
 12 13  1  0
 13 14  2  0
 14 15  1  0
 15 16  2  0
 16 17  1  0
 17 18  1  0
 18 19  1  0
 19 20  1  0
 20 21  1  0
 21 22  1  0
 22 23  1  0
  7 24  2  0
 24 25  1  0
 25 26  2  0
 26 27  1  0
 27  2  1  0
 26  5  1  0
 17 13  1  0
 23 18  1  0
M  END
> <Identifier>
2754.0

> <DILI>
0

$$$$

     RDKit          2D

 24 27  0  0  0  0  0  0  0  0999 V2000
   -6.0299   -0.6150    0.0000 O   0  0  0  0  0  0  0  0  0  0  0  0
   -5.0474    0.5184    0.0000 C   0  0  0  0  0  0  0  0  0  0  0  0
   -5.5376    1.9360    0.0000 O   0  0  0  0  0  0  0  0  0  0  0  0
   -3.5745    0.2341    0.0000 C   0  0  0  0  0  0  0  0  0  0  0  0
   -3.0843   -1.1835    0.0000 C   0  0  0  0  0  0  0  0  0  0  0  0
   -1.6115   -1.4678    0.0000 N   0  0  0  0  0  0  0  0  0  0  0  0
   -1.1212   -2.8854    0.0000 C   0  0  0  0  0  0  0  0  0  0  0  0
    0.0121   -3.8680    0.0000 C   0  0  0  0  0  0  0  0  0  0  0  0
   -1.4055   -4.3582    0.0000 C   0  0  0  0  0  0  0  0  0  0  0  0
   -0.6289   -0.3344    0.0000 C   0  0  0  0  0  0  0  0  0  0  0  0
    0.8439   -0.6187    0.0000 C   0  0  0  0  0  0  0  0  0  0  0  0
    1.8265    0.5147    0.0000 C   0  0  0  0  0  0  0  0  0  0  0  0
    3.2993    0.2305    0.0000 N   0  0  0  0  0  0  0  0  0  0  0  0
    3.7896   -1.1872    0.0000 C   0  0  0  0  0  0  0  0  0  0  0  0
    5.2624   -1.4714    0.0000 C   0  0  0  0  0  0  0  0  0  0  0  0
    6.2450   -0.3380    0.0000 N   0  0  0  0  0  0  0  0  0  0  0  0
    5.7547    1.0796    0.0000 C   0  0  0  0  0  0  0  0  0  0  0  0
    4.2819    1.3638    0.0000 C   0  0  0  0  0  0  0  0  0  0  0  0
    1.3363    1.9324    0.0000 C   0  0  0  0  0  0  0  0  0  0  0  0
    2.3188    3.0657    0.0000 F   0  0  0  0  0  0  0  0  0  0  0  0
   -0.1366    2.2166    0.0000 C   0  0  0  0  0  0  0  0  0  0  0  0
   -1.1191    1.0832    0.0000 C   0  0  0  0  0  0  0  0  0  0  0  0
   -2.5920    1.3675    0.0000 C   0  0  0  0  0  0  0  0  0  0  0  0
   -3.0822    2.7851    0.0000 O   0  0  0  0  0  0  0  0  0  0  0  0
  1  2  2  0
  2  3  1  0
  2  4  1  0
  4  5  2  0
  5  6  1  0
  6  7  1  0
  7  8  1  0
  8  9  1  0
  6 10  1  0
 10 11  2  0
 11 12  1  0
 12 13  1  0
 13 14  1  0
 14 15  1  0
 15 16  1  0
 16 17  1  0
 17 18  1  0
 12 19  2  0
 19 20  1  0
 19 21  1  0
 21 22  2  0
 22 23  1  0
 23 24  2  0
 23  4  1  0
  9  7  1  0
 22 10  1  0
 18 13  1  0
M  END
> <Identifier>
2764.0

> <DILI>
1

$$$$

     RDKit          2D

 14 15  0  0  0  0  0  0  0  0999 V2000
    0.5786   -1.7137    0.0000 Cl  0  0  0  0  0  0  0  0  0  0  0  0
   -0.7760   -1.0694    0.0000 C   0  0  0  0  0  0  0  0  0  0  0  0
   -2.0113   -1.9203    0.0000 C   0  0  0  0  0  0  0  0  0  0  0  0
   -3.3659   -1.2760    0.0000 C   0  0  0  0  0  0  0  0  0  0  0  0
   -3.4851    0.2192    0.0000 C   0  0  0  0  0  0  0  0  0  0  0  0
   -2.2499    1.0702    0.0000 C   0  0  0  0  0  0  0  0  0  0  0  0
   -2.3692    2.5654    0.0000 Cl  0  0  0  0  0  0  0  0  0  0  0  0
   -0.8953    0.4259    0.0000 C   0  0  0  0  0  0  0  0  0  0  0  0
    0.3400    1.2768    0.0000 N   0  0  0  0  0  0  0  0  0  0  0  0
    1.6945    0.6325    0.0000 C   0  0  0  0  0  0  0  0  0  0  0  0
    3.0120    1.3496    0.0000 N   0  0  0  0  0  0  0  0  0  0  0  0
    4.1012    0.3183    0.0000 C   0  0  0  0  0  0  0  0  0  0  0  0
    3.4569   -1.0363    0.0000 C   0  0  0  0  0  0  0  0  0  0  0  0
    1.9695   -0.8421    0.0000 N   0  0  0  0  0  0  0  0  0  0  0  0
  1  2  1  0
  2  3  2  0
  3  4  1  0
  4  5  2  0
  5  6  1  0
  6  7  1  0
  6  8  2  0
  8  9  1  0
  9 10  1  0
 10 11  2  0
 11 12  1  0
 12 13  1  0
 13 14  1  0
  8  2  1  0
 14 10  1  0
M  END
> <Identifier>
2803.0

> <DILI>
1

$$$$

     RDKit          2D

 23 26  0  0  0  0  0  0  0  0999 V2000
    6.0033   -2.4954    0.0000 C   0  0  0  0  0  0  0  0  0  0  0  0
    4.6280   -1.8967    0.0000 N   0  0  0  0  0  0  0  0  0  0  0  0
    3.4218   -2.7883    0.0000 C   0  0  0  0  0  0  0  0  0  0  0  0
    2.0465   -2.1896    0.0000 C   0  0  0  0  0  0  0  0  0  0  0  0
    1.8773   -0.6992    0.0000 N   0  0  0  0  0  0  0  0  0  0  0  0
    0.5020   -0.1004    0.0000 C   0  0  0  0  0  0  0  0  0  0  0  0
    0.4448    1.3985    0.0000 C   0  0  0  0  0  0  0  0  0  0  0  0
    1.8191    1.9994    0.0000 C   0  0  0  0  0  0  0  0  0  0  0  0
    1.9859    3.4901    0.0000 C   0  0  0  0  0  0  0  0  0  0  0  0
    0.7783    4.3799    0.0000 C   0  0  0  0  0  0  0  0  0  0  0  0
   -0.5961    3.7790    0.0000 C   0  0  0  0  0  0  0  0  0  0  0  0
   -0.7628    2.2883    0.0000 C   0  0  0  0  0  0  0  0  0  0  0  0
   -2.2114    1.8989    0.0000 N   0  0  0  0  0  0  0  0  0  0  0  0
   -2.8102    0.5236    0.0000 C   0  0  0  0  0  0  0  0  0  0  0  0
   -4.3092    0.5785    0.0000 C   0  0  0  0  0  0  0  0  0  0  0  0
   -5.1062   -0.6922    0.0000 C   0  0  0  0  0  0  0  0  0  0  0  0
   -4.4043   -2.0178    0.0000 C   0  0  0  0  0  0  0  0  0  0  0  0
   -5.2013   -3.2885    0.0000 Cl  0  0  0  0  0  0  0  0  0  0  0  0
   -2.9053   -2.0727    0.0000 C   0  0  0  0  0  0  0  0  0  0  0  0
   -2.1082   -0.8020    0.0000 C   0  0  0  0  0  0  0  0  0  0  0  0
   -0.6342   -1.0797    0.0000 N   0  0  0  0  0  0  0  0  0  0  0  0
    3.0835    0.1925    0.0000 C   0  0  0  0  0  0  0  0  0  0  0  0
    4.4588   -0.4062    0.0000 C   0  0  0  0  0  0  0  0  0  0  0  0
  1  2  1  0
  2  3  1  0
  3  4  1  0
  4  5  1  0
  5  6  1  0
  6  7  2  0
  7  8  1  0
  8  9  2  0
  9 10  1  0
 10 11  2  0
 11 12  1  0
 12 13  2  0
 13 14  1  0
 14 15  2  0
 15 16  1  0
 16 17  2  0
 17 18  1  0
 17 19  1  0
 19 20  2  0
 20 21  1  0
  5 22  1  0
 22 23  1  0
 23  2  1  0
 21  6  1  0
 12  7  1  0
 20 14  1  0
M  END
> <Identifier>
2818.0

> <DILI>
1

$$$$

     RDKit          2D

 27 29  0  0  0  0  0  0  0  0999 V2000
   -7.0868   -3.4006    0.0000 C   0  0  0  0  0  0  0  0  0  0  0  0
   -5.9529   -2.4186    0.0000 C   0  0  0  0  0  0  0  0  0  0  0  0
   -6.2364   -0.9456    0.0000 O   0  0  0  0  0  0  0  0  0  0  0  0
   -4.5356   -2.9096    0.0000 O   0  0  0  0  0  0  0  0  0  0  0  0
   -3.4017   -1.9276    0.0000 C   0  0  0  0  0  0  0  0  0  0  0  0
   -3.6852   -0.4546    0.0000 C   0  0  0  0  0  0  0  0  0  0  0  0
   -2.5513    0.5274    0.0000 C   0  0  0  0  0  0  0  0  0  0  0  0
   -1.1339    0.0364    0.0000 C   0  0  0  0  0  0  0  0  0  0  0  0
   -0.0000    1.0184    0.0000 C   0  0  0  0  0  0  0  0  0  0  0  0
   -0.2835    2.4913    0.0000 C   0  0  0  0  0  0  0  0  0  0  0  0
    0.8504    3.4733    0.0000 C   0  0  0  0  0  0  0  0  0  0  0  0
    0.5669    4.9463    0.0000 C   0  0  0  0  0  0  0  0  0  0  0  0
   -0.8504    5.4373    0.0000 C   0  0  0  0  0  0  0  0  0  0  0  0
   -1.9843    4.4553    0.0000 C   0  0  0  0  0  0  0  0  0  0  0  0
   -1.7008    2.9823    0.0000 C   0  0  0  0  0  0  0  0  0  0  0  0
    1.4174    0.5274    0.0000 C   0  0  0  0  0  0  0  0  0  0  0  0
    1.7008   -0.9456    0.0000 C   0  0  0  0  0  0  0  0  0  0  0  0
    3.1182   -1.4366    0.0000 C   0  0  0  0  0  0  0  0  0  0  0  0
    4.2521   -0.4546    0.0000 C   0  0  0  0  0  0  0  0  0  0  0  0
    5.6695   -0.9456    0.0000 O   0  0  0  0  0  0  0  0  0  0  0  0
    5.9529   -2.4186    0.0000 C   0  0  0  0  0  0  0  0  0  0  0  0
    7.3703   -2.9096    0.0000 C   0  0  0  0  0  0  0  0  0  0  0  0
    4.8190   -3.4006    0.0000 O   0  0  0  0  0  0  0  0  0  0  0  0
    3.9686    1.0184    0.0000 C   0  0  0  0  0  0  0  0  0  0  0  0
    2.5513    1.5093    0.0000 C   0  0  0  0  0  0  0  0  0  0  0  0
   -0.8504   -1.4366    0.0000 C   0  0  0  0  0  0  0  0  0  0  0  0
   -1.9843   -2.4186    0.0000 C   0  0  0  0  0  0  0  0  0  0  0  0
  1  2  1  0
  2  3  2  0
  2  4  1  0
  4  5  1  0
  5  6  2  0
  6  7  1  0
  7  8  2  0
  8  9  1  0
  9 10  2  0
 10 11  1  0
 11 12  1  0
 12 13  1  0
 13 14  1  0
 14 15  1  0
  9 16  1  0
 16 17  2  0
 17 18  1  0
 18 19  2  0
 19 20  1  0
 20 21  1  0
 21 22  1  0
 21 23  2  0
 19 24  1  0
 24 25  2  0
  8 26  1  0
 26 27  2  0
 27  5  1  0
 15 10  1  0
 25 16  1  0
M  END
> <Identifier>
2898.0

> <DILI>
1

$$$$

     RDKit          2D

 22 25  0  0  0  0  0  0  0  0999 V2000
    5.8040   -0.0000    0.0000 C   0  0  0  0  0  0  0  0  0  0  0  0
    4.3040   -0.0000    0.0000 N   0  0  0  0  0  0  0  0  0  0  0  0
    3.5540   -1.2990    0.0000 C   0  0  0  0  0  0  0  0  0  0  0  0
    2.0540   -1.2990    0.0000 C   0  0  0  0  0  0  0  0  0  0  0  0
    1.3040   -0.0000    0.0000 C   0  0  0  0  0  0  0  0  0  0  0  0
   -0.1960   -0.0000    0.0000 C   0  0  0  0  0  0  0  0  0  0  0  0
   -0.8469    1.3515    0.0000 C   0  0  0  0  0  0  0  0  0  0  0  0
    0.1734    2.4510    0.0000 C   0  0  0  0  0  0  0  0  0  0  0  0
   -0.2687    3.8844    0.0000 C   0  0  0  0  0  0  0  0  0  0  0  0
   -1.7311    4.2182    0.0000 C   0  0  0  0  0  0  0  0  0  0  0  0
   -2.7514    3.1186    0.0000 C   0  0  0  0  0  0  0  0  0  0  0  0
   -2.3092    1.6852    0.0000 C   0  0  0  0  0  0  0  0  0  0  0  0
   -3.4820    0.7500    0.0000 C   0  0  0  0  0  0  0  0  0  0  0  0
   -3.4820   -0.7500    0.0000 C   0  0  0  0  0  0  0  0  0  0  0  0
   -2.3092   -1.6852    0.0000 C   0  0  0  0  0  0  0  0  0  0  0  0
   -2.7514   -3.1186    0.0000 C   0  0  0  0  0  0  0  0  0  0  0  0
   -1.7311   -4.2182    0.0000 C   0  0  0  0  0  0  0  0  0  0  0  0
   -0.2687   -3.8844    0.0000 C   0  0  0  0  0  0  0  0  0  0  0  0
    0.1734   -2.4510    0.0000 C   0  0  0  0  0  0  0  0  0  0  0  0
   -0.8469   -1.3515    0.0000 C   0  0  0  0  0  0  0  0  0  0  0  0
    2.0540    1.2990    0.0000 C   0  0  0  0  0  0  0  0  0  0  0  0
    3.5540    1.2990    0.0000 C   0  0  0  0  0  0  0  0  0  0  0  0
  1  2  1  0
  2  3  1  0
  3  4  1  0
  4  5  1  0
  5  6  2  0
  6  7  1  0
  7  8  2  0
  8  9  1  0
  9 10  2  0
 10 11  1  0
 11 12  2  0
 12 13  1  0
 13 14  2  0
 14 15  1  0
 15 16  2  0
 16 17  1  0
 17 18  2  0
 18 19  1  0
 19 20  2  0
  5 21  1  0
 21 22  1  0
 22  2  1  0
 20  6  1  0
 12  7  1  0
 20 15  1  0
M  END
> <Identifier>
2913.0

> <DILI>
1

$$$$

     RDKit          2D

 23 25  0  0  0  0  0  0  0  0999 V2000
   -7.5207   -2.8131    0.0000 O   0  0  0  0  0  0  0  0  0  0  0  0
   -6.7601   -1.5202    0.0000 C   0  0  0  0  0  0  0  0  0  0  0  0
   -5.2671   -1.3756    0.0000 C   0  0  0  0  0  0  0  0  0  0  0  0
   -4.9432    0.0890    0.0000 N   0  0  0  0  0  0  0  0  0  0  0  0
   -3.5680    0.6879    0.0000 N   0  0  0  0  0  0  0  0  0  0  0  0
   -2.3617   -0.2037    0.0000 C   0  0  0  0  0  0  0  0  0  0  0  0
   -0.9864    0.3952    0.0000 C   0  0  0  0  0  0  0  0  0  0  0  0
   -0.6626    1.8598    0.0000 C   0  0  0  0  0  0  0  0  0  0  0  0
    0.8304    2.0044    0.0000 C   0  0  0  0  0  0  0  0  0  0  0  0
    1.4293    0.6291    0.0000 C   0  0  0  0  0  0  0  0  0  0  0  0
    2.8939    0.3053    0.0000 C   0  0  0  0  0  0  0  0  0  0  0  0
    3.3458   -1.1251    0.0000 C   0  0  0  0  0  0  0  0  0  0  0  0
    4.8104   -1.4489    0.0000 C   0  0  0  0  0  0  0  0  0  0  0  0
    5.8232   -0.3425    0.0000 C   0  0  0  0  0  0  0  0  0  0  0  0
    7.2878   -0.6663    0.0000 N   0  0  0  0  0  4  0  0  0  0  0  0
    8.3006    0.4401    0.0000 O   0  0  0  0  0  0  0  0  0  0  0  0
    7.7396   -2.0967    0.0000 O   0  0  0  0  0  1  0  0  0  0  0  0
    5.3713    1.0879    0.0000 C   0  0  0  0  0  0  0  0  0  0  0  0
    3.9067    1.4117    0.0000 C   0  0  0  0  0  0  0  0  0  0  0  0
    0.3064   -0.3654    0.0000 O   0  0  0  0  0  0  0  0  0  0  0  0
   -6.2361    0.8496    0.0000 C   0  0  0  0  0  0  0  0  0  0  0  0
   -6.3807    2.3426    0.0000 O   0  0  0  0  0  0  0  0  0  0  0  0
   -7.3590   -0.1450    0.0000 N   0  0  0  0  0  0  0  0  0  0  0  0
  1  2  2  0
  2  3  1  0
  3  4  1  0
  4  5  1  0
  5  6  2  3
  6  7  1  0
  7  8  2  0
  8  9  1  0
  9 10  2  0
 10 11  1  0
 11 12  2  0
 12 13  1  0
 13 14  2  0
 14 15  1  0
 15 16  2  0
 15 17  1  0
 14 18  1  0
 18 19  2  0
 10 20  1  0
  4 21  1  0
 21 22  2  0
 21 23  1  0
 23  2  1  0
 20  7  1  0
 19 11  1  0
M  CHG  2  15   1  17  -1
M  END
> <Identifier>
2952.0

> <DILI>
1

$$$$

     RDKit          2D

 17 18  0  0  0  0  0  0  0  0999 V2000
    6.0000   -0.0000    0.0000 N   0  0  0  0  0  0  0  0  0  0  0  0
    4.5000   -0.0000    0.0000 C   0  0  0  0  0  0  0  0  0  0  0  0
    3.7500   -1.2990    0.0000 C   0  0  0  0  0  0  0  0  0  0  0  0
    2.2500   -1.2990    0.0000 C   0  0  0  0  0  0  0  0  0  0  0  0
    1.5000   -0.0000    0.0000 C   0  0  0  0  0  0  0  0  0  0  0  0
    0.0000   -0.0000    0.0000 S   0  0  0  0  0  0  0  0  0  0  0  0
    0.0000    1.5000    0.0000 O   0  0  0  0  0  0  0  0  0  0  0  0
    0.0000   -1.5000    0.0000 O   0  0  0  0  0  0  0  0  0  0  0  0
   -1.5000   -0.0000    0.0000 C   0  0  0  0  0  0  0  0  0  0  0  0
   -2.2500    1.2990    0.0000 C   0  0  0  0  0  0  0  0  0  0  0  0
   -3.7500    1.2990    0.0000 C   0  0  0  0  0  0  0  0  0  0  0  0
   -4.5000    0.0000    0.0000 C   0  0  0  0  0  0  0  0  0  0  0  0
   -6.0000   -0.0000    0.0000 N   0  0  0  0  0  0  0  0  0  0  0  0
   -3.7500   -1.2990    0.0000 C   0  0  0  0  0  0  0  0  0  0  0  0
   -2.2500   -1.2990    0.0000 C   0  0  0  0  0  0  0  0  0  0  0  0
    2.2500    1.2990    0.0000 C   0  0  0  0  0  0  0  0  0  0  0  0
    3.7500    1.2990    0.0000 C   0  0  0  0  0  0  0  0  0  0  0  0
  1  2  1  0
  2  3  2  0
  3  4  1  0
  4  5  2  0
  5  6  1  0
  6  7  2  0
  6  8  2  0
  6  9  1  0
  9 10  2  0
 10 11  1  0
 11 12  2  0
 12 13  1  0
 12 14  1  0
 14 15  2  0
  5 16  1  0
 16 17  2  0
 17  2  1  0
 15  9  1  0
M  END
> <Identifier>
2955.0

> <DILI>
1

$$$$

     RDKit          2D

 39 38  0  0  0  0  0  0  0  0999 V2000
   18.9502    0.4742    0.0000 C   0  0  0  0  0  0  0  0  0  0  0  0
   17.6555   -0.2833    0.0000 C   0  0  0  0  0  0  0  0  0  0  0  0
   17.6641   -1.7833    0.0000 O   0  0  0  0  0  0  0  0  0  0  0  0
   16.3522    0.4592    0.0000 N   0  0  0  0  0  0  0  0  0  0  0  0
   16.3436    1.9592    0.0000 O   0  0  0  0  0  0  0  0  0  0  0  0
   15.0575   -0.2982    0.0000 C   0  0  0  0  0  0  0  0  0  0  0  0
   13.7542    0.4443    0.0000 C   0  0  0  0  0  0  0  0  0  0  0  0
   12.4594   -0.3131    0.0000 C   0  0  0  0  0  0  0  0  0  0  0  0
   11.1561    0.4294    0.0000 C   0  0  0  0  0  0  0  0  0  0  0  0
    9.8614   -0.3280    0.0000 C   0  0  0  0  0  0  0  0  0  0  0  0
    8.5581    0.4145    0.0000 N   0  0  0  0  0  0  0  0  0  0  0  0
    7.2634   -0.3429    0.0000 C   0  0  0  0  0  0  0  0  0  0  0  0
    7.2720   -1.8429    0.0000 O   0  0  0  0  0  0  0  0  0  0  0  0
    5.9601    0.3996    0.0000 C   0  0  0  0  0  0  0  0  0  0  0  0
    4.6653   -0.3578    0.0000 C   0  0  0  0  0  0  0  0  0  0  0  0
    3.3620    0.3847    0.0000 C   0  0  0  0  0  0  0  0  0  0  0  0
    3.3534    1.8847    0.0000 O   0  0  0  0  0  0  0  0  0  0  0  0
    2.0673   -0.3728    0.0000 N   0  0  0  0  0  0  0  0  0  0  0  0
    2.0759   -1.8727    0.0000 O   0  0  0  0  0  0  0  0  0  0  0  0
    0.7640    0.3698    0.0000 C   0  0  0  0  0  0  0  0  0  0  0  0
   -0.5307   -0.3877    0.0000 C   0  0  0  0  0  0  0  0  0  0  0  0
   -1.8340    0.3549    0.0000 C   0  0  0  0  0  0  0  0  0  0  0  0
   -3.1288   -0.4026    0.0000 C   0  0  0  0  0  0  0  0  0  0  0  0
   -4.4321    0.3400    0.0000 C   0  0  0  0  0  0  0  0  0  0  0  0
   -5.7268   -0.4175    0.0000 N   0  0  0  0  0  0  0  0  0  0  0  0
   -7.0301    0.3250    0.0000 C   0  0  0  0  0  0  0  0  0  0  0  0
   -7.0387    1.8250    0.0000 O   0  0  0  0  0  0  0  0  0  0  0  0
   -8.3248   -0.4324    0.0000 C   0  0  0  0  0  0  0  0  0  0  0  0
   -9.6281    0.3101    0.0000 C   0  0  0  0  0  0  0  0  0  0  0  0
  -10.9229   -0.4473    0.0000 C   0  0  0  0  0  0  0  0  0  0  0  0
  -10.9142   -1.9473    0.0000 O   0  0  0  0  0  0  0  0  0  0  0  0
  -12.2262    0.2952    0.0000 N   0  0  0  0  0  0  0  0  0  0  0  0
  -12.2348    1.7952    0.0000 O   0  0  0  0  0  0  0  0  0  0  0  0
  -13.5209   -0.4622    0.0000 C   0  0  0  0  0  0  0  0  0  0  0  0
  -14.8242    0.2803    0.0000 C   0  0  0  0  0  0  0  0  0  0  0  0
  -16.1189   -0.4771    0.0000 C   0  0  0  0  0  0  0  0  0  0  0  0
  -17.4222    0.2654    0.0000 C   0  0  0  0  0  0  0  0  0  0  0  0
  -18.7170   -0.4921    0.0000 C   0  0  0  0  0  0  0  0  0  0  0  0
  -20.0203    0.2505    0.0000 N   0  0  0  0  0  0  0  0  0  0  0  0
  1  2  1  0
  2  3  2  0
  2  4  1  0
  4  5  1  0
  4  6  1  0
  6  7  1  0
  7  8  1  0
  8  9  1  0
  9 10  1  0
 10 11  1  0
 11 12  1  0
 12 13  2  0
 12 14  1  0
 14 15  1  0
 15 16  1  0
 16 17  2  0
 16 18  1  0
 18 19  1  0
 18 20  1  0
 20 21  1  0
 21 22  1  0
 22 23  1  0
 23 24  1  0
 24 25  1  0
 25 26  1  0
 26 27  2  0
 26 28  1  0
 28 29  1  0
 29 30  1  0
 30 31  2  0
 30 32  1  0
 32 33  1  0
 32 34  1  0
 34 35  1  0
 35 36  1  0
 36 37  1  0
 37 38  1  0
 38 39  1  0
M  END
> <Identifier>
2973.0

> <DILI>
0

$$$$

     RDKit          2D

 20 22  0  0  0  0  0  0  0  0999 V2000
   -5.9628   -2.5182    0.0000 C   0  0  0  0  0  0  0  0  0  0  0  0
   -4.8630   -1.4982    0.0000 N   0  0  0  0  0  0  0  0  0  0  0  0
   -3.4297   -1.9407    0.0000 C   0  0  0  0  0  0  0  0  0  0  0  0
   -2.3299   -0.9207    0.0000 C   0  0  0  0  0  0  0  0  0  0  0  0
   -0.8967   -1.3631    0.0000 C   0  0  0  0  0  0  0  0  0  0  0  0
    0.2031   -0.3431    0.0000 N   0  0  0  0  0  0  0  0  0  0  0  0
    1.5993   -0.8914    0.0000 C   0  0  0  0  0  0  0  0  0  0  0  0
    1.5990   -2.3914    0.0000 C   0  0  0  0  0  0  0  0  0  0  0  0
    2.8979   -3.1417    0.0000 C   0  0  0  0  0  0  0  0  0  0  0  0
    4.1971   -2.3920    0.0000 C   0  0  0  0  0  0  0  0  0  0  0  0
    4.1974   -0.8920    0.0000 C   0  0  0  0  0  0  0  0  0  0  0  0
    2.8985   -0.1417    0.0000 C   0  0  0  0  0  0  0  0  0  0  0  0
    3.1224    1.3415    0.0000 C   0  0  0  0  0  0  0  0  0  0  0  0
    2.1024    2.4413    0.0000 C   0  0  0  0  0  0  0  0  0  0  0  0
    0.6066    2.3295    0.0000 C   0  0  0  0  0  0  0  0  0  0  0  0
   -0.0439    3.6811    0.0000 C   0  0  0  0  0  0  0  0  0  0  0  0
   -1.5397    3.7935    0.0000 C   0  0  0  0  0  0  0  0  0  0  0  0
   -2.3850    2.5544    0.0000 C   0  0  0  0  0  0  0  0  0  0  0  0
   -1.7344    1.2028    0.0000 C   0  0  0  0  0  0  0  0  0  0  0  0
   -0.2387    1.0903    0.0000 C   0  0  0  0  0  0  0  0  0  0  0  0
  1  2  1  0
  2  3  1  0
  3  4  1  0
  4  5  1  0
  5  6  1  0
  6  7  1  0
  7  8  2  0
  8  9  1  0
  9 10  2  0
 10 11  1  0
 11 12  2  0
 12 13  1  0
 13 14  1  0
 14 15  1  0
 15 16  2  0
 16 17  1  0
 17 18  2  0
 18 19  1  0
 19 20  2  0
 20  6  1  0
 12  7  1  0
 20 15  1  0
M  END
> <Identifier>
2995.0

> <DILI>
0

$$$$

     RDKit          2D

 19 20  0  0  0  0  0  0  0  0999 V2000
   -4.9468   -0.3238    0.0000 O   0  0  0  0  0  0  0  0  0  0  0  0
   -3.9970   -1.4848    0.0000 C   0  0  0  0  0  0  0  0  0  0  0  0
   -4.5276   -2.8878    0.0000 O   0  0  0  0  0  0  0  0  0  0  0  0
   -2.5167   -1.2428    0.0000 C   0  0  0  0  0  0  0  0  0  0  0  0
   -1.9861    0.1602    0.0000 C   0  0  0  0  0  0  0  0  0  0  0  0
   -2.9359    1.3213    0.0000 C   0  0  0  0  0  0  0  0  0  0  0  0
   -2.4053    2.7243    0.0000 C   0  0  0  0  0  0  0  0  0  0  0  0
   -0.9249    2.9663    0.0000 C   0  0  0  0  0  0  0  0  0  0  0  0
    0.0248    1.8053    0.0000 C   0  0  0  0  0  0  0  0  0  0  0  0
   -0.5057    0.4023    0.0000 C   0  0  0  0  0  0  0  0  0  0  0  0
    0.4440   -0.7587    0.0000 N   0  0  0  0  0  0  0  0  0  0  0  0
    1.9244   -0.5167    0.0000 C   0  0  0  0  0  0  0  0  0  0  0  0
    2.8741   -1.6777    0.0000 C   0  0  0  0  0  0  0  0  0  0  0  0
    2.3436   -3.0808    0.0000 Cl  0  0  0  0  0  0  0  0  0  0  0  0
    4.3545   -1.4357    0.0000 C   0  0  0  0  0  0  0  0  0  0  0  0
    4.8851   -0.0327    0.0000 C   0  0  0  0  0  0  0  0  0  0  0  0
    3.9353    1.1283    0.0000 C   0  0  0  0  0  0  0  0  0  0  0  0
    2.4550    0.8863    0.0000 C   0  0  0  0  0  0  0  0  0  0  0  0
    1.5052    2.0473    0.0000 Cl  0  0  0  0  0  0  0  0  0  0  0  0
  1  2  2  0
  2  3  1  0
  2  4  1  0
  4  5  1  0
  5  6  2  0
  6  7  1  0
  7  8  2  0
  8  9  1  0
  9 10  2  0
 10 11  1  0
 11 12  1  0
 12 13  2  0
 13 14  1  0
 13 15  1  0
 15 16  2  0
 16 17  1  0
 17 18  2  0
 18 19  1  0
 10  5  1  0
 18 12  1  0
M  END
> <Identifier>
3033.0

> <DILI>
1

$$$$

     RDKit          2D

 22 23  0  0  0  0  0  0  0  0999 V2000
    7.1435   -0.3485    0.0000 C   0  0  0  0  0  0  0  0  0  0  0  0
    5.8203   -1.0551    0.0000 C   0  0  0  0  0  0  0  0  0  0  0  0
    4.5469   -0.2625    0.0000 N   0  0  0  0  0  0  0  0  0  0  0  0
    4.5965    1.2367    0.0000 C   0  0  0  0  0  0  0  0  0  0  0  0
    5.9197    1.9433    0.0000 C   0  0  0  0  0  0  0  0  0  0  0  0
    3.2237   -0.9690    0.0000 C   0  0  0  0  0  0  0  0  0  0  0  0
    1.9502   -0.1764    0.0000 C   0  0  0  0  0  0  0  0  0  0  0  0
    0.6270   -0.8829    0.0000 O   0  0  0  0  0  0  0  0  0  0  0  0
   -0.6464   -0.0903    0.0000 C   0  0  0  0  0  0  0  0  0  0  0  0
   -0.5968    1.4088    0.0000 O   0  0  0  0  0  0  0  0  0  0  0  0
   -1.9696   -0.7969    0.0000 C   0  0  0  0  0  0  0  0  0  0  0  0
   -2.4357    0.6289    0.0000 C   0  0  0  0  0  0  0  0  0  0  0  0
   -1.4340    1.7454    0.0000 C   0  0  0  0  0  0  0  0  0  0  0  0
   -1.9000    3.1711    0.0000 C   0  0  0  0  0  0  0  0  0  0  0  0
   -3.3678    3.4804    0.0000 C   0  0  0  0  0  0  0  0  0  0  0  0
   -4.3695    2.3639    0.0000 C   0  0  0  0  0  0  0  0  0  0  0  0
   -3.9034    0.9381    0.0000 C   0  0  0  0  0  0  0  0  0  0  0  0
   -3.4546   -1.0083    0.0000 C   0  0  0  0  0  0  0  0  0  0  0  0
   -4.0141   -2.4000    0.0000 C   0  0  0  0  0  0  0  0  0  0  0  0
   -3.0885   -3.5804    0.0000 C   0  0  0  0  0  0  0  0  0  0  0  0
   -1.6035   -3.3690    0.0000 C   0  0  0  0  0  0  0  0  0  0  0  0
   -1.0440   -1.9773    0.0000 C   0  0  0  0  0  0  0  0  0  0  0  0
  1  2  1  0
  2  3  1  0
  3  4  1  0
  4  5  1  0
  3  6  1  0
  6  7  1  0
  7  8  1  0
  8  9  1  0
  9 10  2  0
  9 11  1  0
 11 12  1  0
 12 13  1  0
 13 14  1  0
 14 15  1  0
 15 16  1  0
 16 17  1  0
 11 18  1  0
 18 19  1  0
 19 20  1  0
 20 21  1  0
 21 22  1  0
 22 11  1  0
 17 12  1  0
M  END
> <Identifier>
3042.0

> <DILI>
0

$$$$

     RDKit          2D

 18 19  0  0  0  0  0  0  0  0999 V2000
    4.9058   -1.0587    0.0000 O   0  0  0  0  0  0  0  0  0  0  0  0
    3.4317   -1.3363    0.0000 C   0  0  0  0  0  0  0  0  0  0  0  0
    2.9352   -2.7518    0.0000 O   0  0  0  0  0  0  0  0  0  0  0  0
    2.4542   -0.1986    0.0000 C   0  0  0  0  0  0  0  0  0  0  0  0
    0.9801   -0.4763    0.0000 C   0  0  0  0  0  0  0  0  0  0  0  0
    0.0026    0.6614    0.0000 C   0  0  0  0  0  0  0  0  0  0  0  0
   -1.4715    0.3837    0.0000 C   0  0  0  0  0  0  0  0  0  0  0  0
   -2.4490    1.5215    0.0000 C   0  0  0  0  0  0  0  0  0  0  0  0
   -3.9231    1.2438    0.0000 C   0  0  0  0  0  0  0  0  0  0  0  0
   -4.4196   -0.1716    0.0000 C   0  0  0  0  0  0  0  0  0  0  0  0
   -5.8937   -0.4493    0.0000 F   0  0  0  0  0  0  0  0  0  0  0  0
   -3.4421   -1.3094    0.0000 C   0  0  0  0  0  0  0  0  0  0  0  0
   -1.9680   -1.0317    0.0000 C   0  0  0  0  0  0  0  0  0  0  0  0
   -0.9905   -2.1694    0.0000 F   0  0  0  0  0  0  0  0  0  0  0  0
    0.4991    2.0769    0.0000 C   0  0  0  0  0  0  0  0  0  0  0  0
    1.9732    2.3546    0.0000 C   0  0  0  0  0  0  0  0  0  0  0  0
    2.9507    1.2168    0.0000 C   0  0  0  0  0  0  0  0  0  0  0  0
    4.4248    1.4945    0.0000 O   0  0  0  0  0  0  0  0  0  0  0  0
  1  2  2  0
  2  3  1  0
  2  4  1  0
  4  5  2  0
  5  6  1  0
  6  7  1  0
  7  8  2  0
  8  9  1  0
  9 10  2  0
 10 11  1  0
 10 12  1  0
 12 13  2  0
 13 14  1  0
  6 15  2  0
 15 16  1  0
 16 17  2  0
 17 18  1  0
 17  4  1  0
 13  7  1  0
M  END
> <Identifier>
3059.0

> <DILI>
1

$$$$

     RDKit          2D

  6  5  0  0  0  0  0  0  0  0999 V2000
   -2.5981    0.0000    0.0000 O   0  0  0  0  0  0  0  0  0  0  0  0
   -1.2990   -0.7500    0.0000 C   0  0  0  0  0  0  0  0  0  0  0  0
    0.0000    0.0000    0.0000 C   0  0  0  0  0  0  0  0  0  0  0  0
    0.0000    1.5000    0.0000 S   0  0  0  0  0  0  0  0  0  0  0  0
    1.2990   -0.7500    0.0000 C   0  0  0  0  0  0  0  0  0  0  0  0
    2.5981   -0.0000    0.0000 S   0  0  0  0  0  0  0  0  0  0  0  0
  1  2  1  0
  2  3  1  0
  3  4  1  0
  3  5  1  0
  5  6  1  0
M  END
> <Identifier>
3080.0

> <DILI>
1

$$$$

     RDKit          2D

 19 20  0  0  0  0  0  0  0  0999 V2000
   -5.6651   -2.3469    0.0000 C   0  0  0  0  0  0  0  0  0  0  0  0
   -4.5394   -1.3556    0.0000 N   0  0  0  0  0  0  0  0  0  0  0  0
   -4.8351    0.1150    0.0000 C   0  0  0  0  0  0  0  0  0  0  0  0
   -3.1180   -1.8348    0.0000 C   0  0  0  0  0  0  0  0  0  0  0  0
   -1.9923   -0.8435    0.0000 C   0  0  0  0  0  0  0  0  0  0  0  0
   -0.5709   -1.3227    0.0000 O   0  0  0  0  0  0  0  0  0  0  0  0
    0.5548   -0.3314    0.0000 C   0  0  0  0  0  0  0  0  0  0  0  0
    1.9762   -0.8106    0.0000 C   0  0  0  0  0  0  0  0  0  0  0  0
    2.2718   -2.2812    0.0000 C   0  0  0  0  0  0  0  0  0  0  0  0
    3.6932   -2.7604    0.0000 C   0  0  0  0  0  0  0  0  0  0  0  0
    4.8189   -1.7691    0.0000 C   0  0  0  0  0  0  0  0  0  0  0  0
    4.5233   -0.2985    0.0000 C   0  0  0  0  0  0  0  0  0  0  0  0
    3.1019    0.1807    0.0000 C   0  0  0  0  0  0  0  0  0  0  0  0
    0.2591    1.1392    0.0000 C   0  0  0  0  0  0  0  0  0  0  0  0
    1.3848    2.1306    0.0000 C   0  0  0  0  0  0  0  0  0  0  0  0
    1.0892    3.6011    0.0000 C   0  0  0  0  0  0  0  0  0  0  0  0
   -0.3322    4.0804    0.0000 C   0  0  0  0  0  0  0  0  0  0  0  0
   -1.4579    3.0890    0.0000 C   0  0  0  0  0  0  0  0  0  0  0  0
   -1.1623    1.6184    0.0000 C   0  0  0  0  0  0  0  0  0  0  0  0
  1  2  1  0
  2  3  1  0
  2  4  1  0
  4  5  1  0
  5  6  1  0
  6  7  1  0
  7  8  1  0
  8  9  2  0
  9 10  1  0
 10 11  2  0
 11 12  1  0
 12 13  2  0
  7 14  1  0
 14 15  2  0
 15 16  1  0
 16 17  2  0
 17 18  1  0
 18 19  2  0
 13  8  1  0
 19 14  1  0
M  END
> <Identifier>
3100.0

> <DILI>
0

$$$$

     RDKit          2D

 36 39  0  0  0  0  0  0  0  0999 V2000
   -7.1389    3.2169    0.0000 O   0  0  0  0  0  0  0  0  0  0  0  0
   -6.3833    1.9211    0.0000 C   0  0  0  0  0  0  0  0  0  0  0  0
   -4.8834    1.9275    0.0000 C   0  0  0  0  0  0  0  0  0  0  0  0
   -4.1278    0.6317    0.0000 N   0  0  0  0  0  0  0  0  0  0  0  0
   -4.8722   -0.6705    0.0000 C   0  0  0  0  0  0  0  0  0  0  0  0
   -6.3721   -0.6770    0.0000 C   0  0  0  0  0  0  0  0  0  0  0  0
   -7.1165   -1.9792    0.0000 O   0  0  0  0  0  0  0  0  0  0  0  0
   -2.6278    0.6382    0.0000 C   0  0  0  0  0  0  0  0  0  0  0  0
   -1.8834    1.9405    0.0000 N   0  0  0  0  0  0  0  0  0  0  0  0
   -0.3834    1.9469    0.0000 C   0  0  0  0  0  0  0  0  0  0  0  0
    0.3610    3.2492    0.0000 N   0  0  0  0  0  0  0  0  0  0  0  0
    1.8610    3.2556    0.0000 C   0  0  0  0  0  0  0  0  0  0  0  0
    2.6054    4.5579    0.0000 C   0  0  0  0  0  0  0  0  0  0  0  0
    1.8498    5.8537    0.0000 C   0  0  0  0  0  0  0  0  0  0  0  0
    0.3498    5.8472    0.0000 C   0  0  0  0  0  0  0  0  0  0  0  0
   -0.3946    4.5450    0.0000 C   0  0  0  0  0  0  0  0  0  0  0  0
    0.3722    0.6511    0.0000 C   0  0  0  0  0  0  0  0  0  0  0  0
    1.8722    0.6576    0.0000 N   0  0  0  0  0  0  0  0  0  0  0  0
    2.6278   -0.6382    0.0000 C   0  0  0  0  0  0  0  0  0  0  0  0
    4.1278   -0.6317    0.0000 N   0  0  0  0  0  0  0  0  0  0  0  0
    4.8834   -1.9275    0.0000 C   0  0  0  0  0  0  0  0  0  0  0  0
    6.3833   -1.9211    0.0000 C   0  0  0  0  0  0  0  0  0  0  0  0
    7.1389   -3.2169    0.0000 O   0  0  0  0  0  0  0  0  0  0  0  0
    4.8722    0.6705    0.0000 C   0  0  0  0  0  0  0  0  0  0  0  0
    6.3721    0.6770    0.0000 C   0  0  0  0  0  0  0  0  0  0  0  0
    7.1165    1.9792    0.0000 O   0  0  0  0  0  0  0  0  0  0  0  0
    1.8834   -1.9405    0.0000 N   0  0  0  0  0  0  0  0  0  0  0  0
    0.3834   -1.9469    0.0000 C   0  0  0  0  0  0  0  0  0  0  0  0
   -0.3610   -3.2492    0.0000 N   0  0  0  0  0  0  0  0  0  0  0  0
   -1.8610   -3.2556    0.0000 C   0  0  0  0  0  0  0  0  0  0  0  0
   -2.6054   -4.5579    0.0000 C   0  0  0  0  0  0  0  0  0  0  0  0
   -1.8498   -5.8537    0.0000 C   0  0  0  0  0  0  0  0  0  0  0  0
   -0.3498   -5.8472    0.0000 C   0  0  0  0  0  0  0  0  0  0  0  0
    0.3946   -4.5450    0.0000 C   0  0  0  0  0  0  0  0  0  0  0  0
   -0.3722   -0.6511    0.0000 C   0  0  0  0  0  0  0  0  0  0  0  0
   -1.8722   -0.6576    0.0000 N   0  0  0  0  0  0  0  0  0  0  0  0
  1  2  1  0
  2  3  1  0
  3  4  1  0
  4  5  1  0
  5  6  1  0
  6  7  1  0
  4  8  1  0
  8  9  2  0
  9 10  1  0
 10 11  1  0
 11 12  1  0
 12 13  1  0
 13 14  1  0
 14 15  1  0
 15 16  1  0
 10 17  2  0
 17 18  1  0
 18 19  2  0
 19 20  1  0
 20 21  1  0
 21 22  1  0
 22 23  1  0
 20 24  1  0
 24 25  1  0
 25 26  1  0
 19 27  1  0
 27 28  2  0
 28 29  1  0
 29 30  1  0
 30 31  1  0
 31 32  1  0
 32 33  1  0
 33 34  1  0
 28 35  1  0
 35 36  2  0
 36  8  1  0
 16 11  1  0
 35 17  1  0
 34 29  1  0
M  END
> <Identifier>
3108.0

> <DILI>
1

$$$$

     RDKit          2D

 16 15  0  0  0  0  0  0  0  0999 V2000
    2.4292    2.5599    0.0000 C   0  0  0  0  0  0  0  0  0  0  0  0
    3.6564    1.6975    0.0000 C   0  0  0  0  0  0  0  0  0  0  0  0
    3.5232    0.2034    0.0000 N   0  0  0  0  0  0  0  0  0  0  0  0
    4.7504   -0.6590    0.0000 C   0  0  0  0  0  0  0  0  0  0  0  0
    4.6172   -2.1531    0.0000 C   0  0  0  0  0  0  0  0  0  0  0  0
    2.1626   -0.4282    0.0000 C   0  0  0  0  0  0  0  0  0  0  0  0
    2.0294   -1.9223    0.0000 S   0  0  0  0  0  0  0  0  0  0  0  0
    0.9354    0.4342    0.0000 S   0  0  0  0  0  0  0  0  0  0  0  0
   -0.4252   -0.1974    0.0000 S   0  0  0  0  0  0  0  0  0  0  0  0
   -1.6524    0.6651    0.0000 C   0  0  0  0  0  0  0  0  0  0  0  0
   -1.5192    2.1591    0.0000 S   0  0  0  0  0  0  0  0  0  0  0  0
   -3.0130    0.0334    0.0000 N   0  0  0  0  0  0  0  0  0  0  0  0
   -4.2402    0.8959    0.0000 C   0  0  0  0  0  0  0  0  0  0  0  0
   -5.6008    0.2642    0.0000 C   0  0  0  0  0  0  0  0  0  0  0  0
   -3.1462   -1.4606    0.0000 C   0  0  0  0  0  0  0  0  0  0  0  0
   -4.5068   -2.0923    0.0000 C   0  0  0  0  0  0  0  0  0  0  0  0
  1  2  1  0
  2  3  1  0
  3  4  1  0
  4  5  1  0
  3  6  1  0
  6  7  2  0
  6  8  1  0
  8  9  1  0
  9 10  1  0
 10 11  2  0
 10 12  1  0
 12 13  1  0
 13 14  1  0
 12 15  1  0
 15 16  1  0
M  END
> <Identifier>
3117.0

> <DILI>
1

$$$$

     RDKit          2D

 28 31  0  0  0  0  0  0  0  0999 V2000
   -8.1135    0.3351    0.0000 C   0  0  0  0  0  0  0  0  0  0  0  0
   -7.1427   -0.8083    0.0000 O   0  0  0  0  0  0  0  0  0  0  0  0
   -5.6670   -0.5393    0.0000 C   0  0  0  0  0  0  0  0  0  0  0  0
   -5.1622    0.8732    0.0000 C   0  0  0  0  0  0  0  0  0  0  0  0
   -3.6865    1.1423    0.0000 C   0  0  0  0  0  0  0  0  0  0  0  0
   -2.7157   -0.0011    0.0000 C   0  0  0  0  0  0  0  0  0  0  0  0
   -3.2205   -1.4136    0.0000 C   0  0  0  0  0  0  0  0  0  0  0  0
   -4.6962   -1.6827    0.0000 C   0  0  0  0  0  0  0  0  0  0  0  0
   -5.2010   -3.0952    0.0000 O   0  0  0  0  0  0  0  0  0  0  0  0
   -4.2301   -4.2386    0.0000 C   0  0  0  0  0  0  0  0  0  0  0  0
   -1.3282    0.5688    0.0000 C   0  0  0  0  0  0  0  0  0  0  0  0
   -0.0515   -0.2186    0.0000 O   0  0  0  0  0  0  0  0  0  0  0  0
   -1.4415    2.0646    0.0000 C   0  0  0  0  0  0  0  0  0  0  0  0
   -0.2981    3.0354    0.0000 C   0  0  0  0  0  0  0  0  0  0  0  0
    1.1144    2.5306    0.0000 C   0  0  0  0  0  0  0  0  0  0  0  0
    1.3835    1.0549    0.0000 C   0  0  0  0  0  0  0  0  0  0  0  0
    2.7960    0.5501    0.0000 C   0  0  0  0  0  0  0  0  0  0  0  0
    3.9394    1.5209    0.0000 N   0  0  0  0  0  0  0  0  0  0  0  0
    5.3519    1.0161    0.0000 C   0  0  0  0  0  0  0  0  0  0  0  0
    5.6210   -0.4596    0.0000 C   0  0  0  0  0  0  0  0  0  0  0  0
    4.4775   -1.4304    0.0000 C   0  0  0  0  0  0  0  0  0  0  0  0
    4.7466   -2.9061    0.0000 C   0  0  0  0  0  0  0  0  0  0  0  0
    6.1591   -3.4109    0.0000 C   0  0  0  0  0  0  0  0  0  0  0  0
    7.3025   -2.4401    0.0000 C   0  0  0  0  0  0  0  0  0  0  0  0
    7.0335   -0.9644    0.0000 C   0  0  0  0  0  0  0  0  0  0  0  0
    3.6704    2.9966    0.0000 C   0  0  0  0  0  0  0  0  0  0  0  0
    2.2579    3.5014    0.0000 C   0  0  0  0  0  0  0  0  0  0  0  0
   -2.8990    2.4190    0.0000 C   0  0  0  0  0  0  0  0  0  0  0  0
  1  2  1  0
  2  3  1  0
  3  4  2  0
  4  5  1  0
  5  6  2  0
  6  7  1  0
  7  8  2  0
  8  9  1  0
  9 10  1  0
  6 11  1  0
 11 12  2  0
 11 13  1  0
 13 14  1  0
 14 15  1  0
 15 16  1  0
 16 17  1  0
 17 18  1  0
 18 19  1  0
 19 20  1  0
 20 21  2  0
 21 22  1  0
 22 23  2  0
 23 24  1  0
 24 25  2  0
 18 26  1  0
 26 27  1  0
 13 28  1  0
  8  3  1  0
 27 15  1  0
 28  5  1  0
 25 20  1  0
M  END
> <Identifier>
3152.0

> <DILI>
0

$$$$

     RDKit          2D

 20 21  0  0  0  0  0  0  0  0999 V2000
   -6.4520    0.4621    0.0000 C   0  0  0  0  0  0  0  0  0  0  0  0
   -5.1546   -0.2907    0.0000 N   0  0  0  0  0  0  0  0  0  0  0  0
   -5.1579   -1.7907    0.0000 C   0  0  0  0  0  0  0  0  0  0  0  0
   -3.8540    0.4565    0.0000 C   0  0  0  0  0  0  0  0  0  0  0  0
   -2.5566   -0.2964    0.0000 C   0  0  0  0  0  0  0  0  0  0  0  0
   -1.2559    0.4508    0.0000 O   0  0  0  0  0  0  0  0  0  0  0  0
    0.0415   -0.3021    0.0000 C   0  0  0  0  0  0  0  0  0  0  0  0
   -0.7113   -1.5995    0.0000 C   0  0  0  0  0  0  0  0  0  0  0  0
    0.7943    0.9953    0.0000 C   0  0  0  0  0  0  0  0  0  0  0  0
    2.2943    0.9921    0.0000 C   0  0  0  0  0  0  0  0  0  0  0  0
    3.0472    2.2895    0.0000 C   0  0  0  0  0  0  0  0  0  0  0  0
    2.3000    3.5901    0.0000 C   0  0  0  0  0  0  0  0  0  0  0  0
    0.8000    3.5934    0.0000 C   0  0  0  0  0  0  0  0  0  0  0  0
    0.0472    2.2960    0.0000 C   0  0  0  0  0  0  0  0  0  0  0  0
    1.3389   -1.0549    0.0000 C   0  0  0  0  0  0  0  0  0  0  0  0
    1.3356   -2.5549    0.0000 C   0  0  0  0  0  0  0  0  0  0  0  0
    2.6330   -3.3077    0.0000 C   0  0  0  0  0  0  0  0  0  0  0  0
    3.9337   -2.5606    0.0000 C   0  0  0  0  0  0  0  0  0  0  0  0
    3.9370   -1.0606    0.0000 C   0  0  0  0  0  0  0  0  0  0  0  0
    2.6396   -0.3077    0.0000 N   0  0  0  0  0  0  0  0  0  0  0  0
  1  2  1  0
  2  3  1  0
  2  4  1  0
  4  5  1  0
  5  6  1  0
  6  7  1  0
  7  8  1  0
  7  9  1  0
  9 10  2  0
 10 11  1  0
 11 12  2  0
 12 13  1  0
 13 14  2  0
  7 15  1  0
 15 16  2  0
 16 17  1  0
 17 18  2  0
 18 19  1  0
 19 20  2  0
 14  9  1  0
 20 15  1  0
M  END
> <Identifier>
3162.0

> <DILI>
0

$$$$

     RDKit          2D

 28 31  0  0  0  0  0  0  0  0999 V2000
   -4.0090    2.0908    0.0000 O   0  0  0  0  0  0  0  0  0  0  0  0
   -4.5771    0.7025    0.0000 C   0  0  0  0  0  0  0  0  0  0  0  0
   -3.6588   -0.4836    0.0000 C   0  0  0  0  0  0  0  0  0  0  0  0
   -2.1725   -0.2814    0.0000 C   0  0  0  0  0  0  0  0  0  0  0  0
   -1.2542   -1.4675    0.0000 C   0  0  0  0  0  0  0  0  0  0  0  0
    0.2321   -1.2652    0.0000 N   0  0  0  0  0  0  0  0  0  0  0  0
    1.1504   -2.4513    0.0000 C   0  0  0  0  0  0  0  0  0  0  0  0
    2.6367   -2.2491    0.0000 C   0  0  0  0  0  0  0  0  0  0  0  0
    3.2047   -0.8608    0.0000 C   0  0  0  0  0  0  0  0  0  0  0  0
    4.6910   -0.6586    0.0000 N   0  0  0  0  0  0  0  0  0  0  0  0
    5.7282   -1.7422    0.0000 C   0  0  0  0  0  0  0  0  0  0  0  0
    5.4613   -3.2183    0.0000 O   0  0  0  0  0  0  0  0  0  0  0  0
    7.0793   -1.0906    0.0000 N   0  0  0  0  0  0  0  0  0  0  0  0
    6.8771    0.3957    0.0000 C   0  0  0  0  0  0  0  0  0  0  0  0
    7.8463    1.5405    0.0000 C   0  0  0  0  0  0  0  0  0  0  0  0
    7.3395    2.9523    0.0000 C   0  0  0  0  0  0  0  0  0  0  0  0
    5.8635    3.2193    0.0000 C   0  0  0  0  0  0  0  0  0  0  0  0
    4.8942    2.0745    0.0000 C   0  0  0  0  0  0  0  0  0  0  0  0
    5.4011    0.6627    0.0000 C   0  0  0  0  0  0  0  0  0  0  0  0
    2.2864    0.3253    0.0000 C   0  0  0  0  0  0  0  0  0  0  0  0
    0.8001    0.1230    0.0000 C   0  0  0  0  0  0  0  0  0  0  0  0
   -6.0634    0.5003    0.0000 C   0  0  0  0  0  0  0  0  0  0  0  0
   -6.9816    1.6864    0.0000 C   0  0  0  0  0  0  0  0  0  0  0  0
   -8.4680    1.4841    0.0000 C   0  0  0  0  0  0  0  0  0  0  0  0
   -9.0360    0.0959    0.0000 C   0  0  0  0  0  0  0  0  0  0  0  0
  -10.5223   -0.1063    0.0000 F   0  0  0  0  0  0  0  0  0  0  0  0
   -8.1177   -1.0902    0.0000 C   0  0  0  0  0  0  0  0  0  0  0  0
   -6.6314   -0.8880    0.0000 C   0  0  0  0  0  0  0  0  0  0  0  0
  1  2  2  0
  2  3  1  0
  3  4  1  0
  4  5  1  0
  5  6  1  0
  6  7  1  0
  7  8  1  0
  8  9  2  0
  9 10  1  0
 10 11  1  0
 11 12  2  0
 11 13  1  0
 13 14  1  0
 14 15  2  0
 15 16  1  0
 16 17  2  0
 17 18  1  0
 18 19  2  0
  9 20  1  0
 20 21  1  0
  2 22  1  0
 22 23  2  0
 23 24  1  0
 24 25  2  0
 25 26  1  0
 25 27  1  0
 27 28  2  0
 21  6  1  0
 28 22  1  0
 19 10  1  0
 19 14  1  0
M  END
> <Identifier>
3168.0

> <DILI>
0

$$$$

     RDKit          2D

 12 12  0  0  0  0  0  0  0  0999 V2000
   -3.7404   -1.2222    0.0000 C   0  0  0  0  0  0  0  0  0  0  0  0
   -3.0772    0.1232    0.0000 C   0  0  0  0  0  0  0  0  0  0  0  0
   -1.5804    0.2216    0.0000 N   0  0  0  0  0  4  0  0  0  0  0  0
   -1.6788    1.7184    0.0000 C   0  0  0  0  0  0  0  0  0  0  0  0
   -1.4821   -1.2752    0.0000 C   0  0  0  0  0  0  0  0  0  0  0  0
   -0.0837    0.3200    0.0000 C   0  0  0  0  0  0  0  0  0  0  0  0
    0.5795    1.6654    0.0000 C   0  0  0  0  0  0  0  0  0  0  0  0
    2.0763    1.7637    0.0000 C   0  0  0  0  0  0  0  0  0  0  0  0
    2.9099    0.5167    0.0000 C   0  0  0  0  0  0  0  0  0  0  0  0
    2.2467   -0.8287    0.0000 C   0  0  0  0  0  0  0  0  0  0  0  0
    3.0803   -2.0758    0.0000 O   0  0  0  0  0  0  0  0  0  0  0  0
    0.7499   -0.9271    0.0000 C   0  0  0  0  0  0  0  0  0  0  0  0
  1  2  1  0
  2  3  1  0
  3  4  1  0
  3  5  1  0
  3  6  1  0
  6  7  2  0
  7  8  1  0
  8  9  2  0
  9 10  1  0
 10 11  1  0
 10 12  2  0
 12  6  1  0
M  CHG  1   3   1
M  END
> <Identifier>
3202.0

> <DILI>
0

$$$$

     RDKit          2D

 11 10  0  0  0  0  0  0  0  0999 V2000
    0.0000    1.5000    0.0000 C   0  0  0  0  0  0  0  0  0  0  0  0
   -0.0000    0.0000    0.0000 C   0  0  0  0  0  0  0  0  0  0  0  0
    0.0000   -1.5000    0.0000 O   0  0  0  0  0  0  0  0  0  0  0  0
   -1.5000    0.0000    0.0000 P   0  0  0  0  0  0  0  0  0  0  0  0
   -3.0000    0.0000    0.0000 O   0  0  0  0  0  0  0  0  0  0  0  0
   -1.5000   -1.5000    0.0000 O   0  0  0  0  0  0  0  0  0  0  0  0
   -1.5000    1.5000    0.0000 O   0  0  0  0  0  0  0  0  0  0  0  0
    1.5000    0.0000    0.0000 P   0  0  0  0  0  0  0  0  0  0  0  0
    3.0000    0.0000    0.0000 O   0  0  0  0  0  0  0  0  0  0  0  0
    1.5000   -1.5000    0.0000 O   0  0  0  0  0  0  0  0  0  0  0  0
    1.5000    1.5000    0.0000 O   0  0  0  0  0  0  0  0  0  0  0  0
  1  2  1  0
  2  3  1  0
  2  4  1  0
  4  5  2  0
  4  6  1  0
  4  7  1  0
  2  8  1  0
  8  9  2  0
  8 10  1  0
  8 11  1  0
M  END
> <Identifier>
3305.0

> <DILI>
0

$$$$

     RDKit          2D

 21 23  0  0  0  0  0  0  0  0999 V2000
   -4.7522   -2.9147    0.0000 C   0  0  0  0  0  0  0  0  0  0  0  0
   -3.3841   -2.2996    0.0000 C   0  0  0  0  0  0  0  0  0  0  0  0
   -3.2328   -0.8072    0.0000 C   0  0  0  0  0  0  0  0  0  0  0  0
   -4.4496    0.0700    0.0000 C   0  0  0  0  0  0  0  0  0  0  0  0
   -4.2983    1.5623    0.0000 C   0  0  0  0  0  0  0  0  0  0  0  0
   -2.9303    2.1775    0.0000 C   0  0  0  0  0  0  0  0  0  0  0  0
   -1.7135    1.3003    0.0000 C   0  0  0  0  0  0  0  0  0  0  0  0
   -0.2475    1.6176    0.0000 C   0  0  0  0  0  0  0  0  0  0  0  0
    0.5073    0.3213    0.0000 C   0  0  0  0  0  0  0  0  0  0  0  0
   -0.4922   -0.7971    0.0000 N   0  0  0  0  0  0  0  0  0  0  0  0
   -1.8648   -0.1920    0.0000 C   0  0  0  0  0  0  0  0  0  0  0  0
    2.0073    0.3269    0.0000 C   0  0  0  0  0  0  0  0  0  0  0  0
    3.4188   -0.1809    0.0000 C   0  0  0  0  0  0  0  0  0  0  0  0
    4.5642    0.7875    0.0000 C   0  0  0  0  0  0  0  0  0  0  0  0
    1.7523   -1.1513    0.0000 C   0  0  0  0  0  0  0  0  0  0  0  0
    2.9049   -2.1112    0.0000 C   0  0  0  0  0  0  0  0  0  0  0  0
    4.3126   -1.5930    0.0000 O   0  0  0  0  0  0  0  0  0  0  0  0
    2.6499   -3.5894    0.0000 O   0  0  0  0  0  0  0  0  0  0  0  0
    2.7525    1.6287    0.0000 O   0  0  0  0  0  0  0  0  0  0  0  0
    1.9977    2.9249    0.0000 C   0  0  0  0  0  0  0  0  0  0  0  0
    0.4977    2.9194    0.0000 C   0  0  0  0  0  0  0  0  0  0  0  0
  1  2  1  0
  2  3  1  0
  3  4  2  0
  4  5  1  0
  5  6  2  0
  6  7  1  0
  7  8  1  0
  8  9  2  0
  9 10  1  0
 10 11  1  0
  9 12  1  0
 12 13  1  0
 13 14  1  0
 12 15  1  0
 15 16  1  0
 16 17  2  0
 16 18  1  0
 12 19  1  0
 19 20  1  0
 20 21  1  0
 11  3  1  0
 11  7  2  0
 21  8  1  0
M  END
> <Identifier>
3308.0

> <DILI>
1

$$$$

     RDKit          2D

 18 18  0  0  0  0  0  0  0  0999 V2000
   -6.5157    2.1821    0.0000 N   0  0  0  0  0  0  0  0  0  0  0  0
   -5.4493    1.1271    0.0000 C   0  0  0  0  0  0  0  0  0  0  0  0
   -4.3829    0.0722    0.0000 C   0  0  0  0  0  0  0  0  0  0  0  0
   -4.7633   -1.3788    0.0000 C   0  0  0  0  0  0  0  0  0  0  0  0
   -5.1437   -2.8297    0.0000 N   0  0  0  0  0  0  0  0  0  0  0  0
   -2.9362    0.4683    0.0000 N   0  0  0  0  0  0  0  0  0  0  0  0
   -1.8698   -0.5867    0.0000 N   0  0  0  0  0  0  0  0  0  0  0  0
   -0.4230   -0.1906    0.0000 C   0  0  0  0  0  0  0  0  0  0  0  0
   -0.0426    1.2603    0.0000 C   0  0  0  0  0  0  0  0  0  0  0  0
    1.4042    1.6564    0.0000 C   0  0  0  0  0  0  0  0  0  0  0  0
    2.4705    0.6015    0.0000 C   0  0  0  0  0  0  0  0  0  0  0  0
    3.9173    0.9975    0.0000 O   0  0  0  0  0  0  0  0  0  0  0  0
    4.9837   -0.0574    0.0000 C   0  0  0  0  0  0  0  0  0  0  0  0
    6.0500   -1.1123    0.0000 F   0  0  0  0  0  0  0  0  0  0  0  0
    6.0386    1.0090    0.0000 F   0  0  0  0  0  0  0  0  0  0  0  0
    3.9288   -1.1238    0.0000 F   0  0  0  0  0  0  0  0  0  0  0  0
    2.0901   -0.8495    0.0000 C   0  0  0  0  0  0  0  0  0  0  0  0
    0.6434   -1.2455    0.0000 C   0  0  0  0  0  0  0  0  0  0  0  0
  1  2  3  0
  2  3  1  0
  3  4  1  0
  4  5  3  0
  3  6  2  0
  6  7  1  0
  7  8  1  0
  8  9  2  0
  9 10  1  0
 10 11  2  0
 11 12  1  0
 12 13  1  0
 13 14  1  0
 13 15  1  0
 13 16  1  0
 11 17  1  0
 17 18  2  0
 18  8  1  0
M  END
> <Identifier>
3330.0

> <DILI>
1

$$$$

     RDKit          2D

 25 26  0  0  0  0  0  0  0  0999 V2000
   -6.4241    2.9780    0.0000 C   0  0  0  0  0  0  0  0  0  0  0  0
   -6.3119    1.4822    0.0000 C   0  0  0  0  0  0  0  0  0  0  0  0
   -7.5512    0.6372    0.0000 C   0  0  0  0  0  0  0  0  0  0  0  0
   -4.9604    0.8314    0.0000 O   0  0  0  0  0  0  0  0  0  0  0  0
   -4.8483   -0.6644    0.0000 C   0  0  0  0  0  0  0  0  0  0  0  0
   -6.0876   -1.5094    0.0000 O   0  0  0  0  0  0  0  0  0  0  0  0
   -3.4968   -1.3151    0.0000 C   0  0  0  0  0  0  0  0  0  0  0  0
   -4.1476   -2.6666    0.0000 C   0  0  0  0  0  0  0  0  0  0  0  0
   -2.8460    0.0363    0.0000 C   0  0  0  0  0  0  0  0  0  0  0  0
   -2.1453   -1.9659    0.0000 O   0  0  0  0  0  0  0  0  0  0  0  0
   -0.9060   -1.1209    0.0000 C   0  0  0  0  0  0  0  0  0  0  0  0
   -1.0182    0.3749    0.0000 C   0  0  0  0  0  0  0  0  0  0  0  0
    0.2212    1.2200    0.0000 C   0  0  0  0  0  0  0  0  0  0  0  0
    1.5727    0.5692    0.0000 C   0  0  0  0  0  0  0  0  0  0  0  0
    2.8120    1.4142    0.0000 C   0  0  0  0  0  0  0  0  0  0  0  0
    2.6998    2.9100    0.0000 O   0  0  0  0  0  0  0  0  0  0  0  0
    4.1635    0.7634    0.0000 C   0  0  0  0  0  0  0  0  0  0  0  0
    4.2756   -0.7324    0.0000 C   0  0  0  0  0  0  0  0  0  0  0  0
    5.6271   -1.3831    0.0000 C   0  0  0  0  0  0  0  0  0  0  0  0
    6.8664   -0.5381    0.0000 C   0  0  0  0  0  0  0  0  0  0  0  0
    8.2179   -1.1889    0.0000 Cl  0  0  0  0  0  0  0  0  0  0  0  0
    6.7543    0.9577    0.0000 C   0  0  0  0  0  0  0  0  0  0  0  0
    5.4028    1.6085    0.0000 C   0  0  0  0  0  0  0  0  0  0  0  0
    1.6848   -0.9266    0.0000 C   0  0  0  0  0  0  0  0  0  0  0  0
    0.4455   -1.7717    0.0000 C   0  0  0  0  0  0  0  0  0  0  0  0
  1  2  1  0
  2  3  1  0
  2  4  1  0
  4  5  1  0
  5  6  2  0
  5  7  1  0
  7  8  1  0
  7  9  1  0
  7 10  1  0
 10 11  1  0
 11 12  2  0
 12 13  1  0
 13 14  2  0
 14 15  1  0
 15 16  2  0
 15 17  1  0
 17 18  2  0
 18 19  1  0
 19 20  2  0
 20 21  1  0
 20 22  1  0
 22 23  2  0
 14 24  1  0
 24 25  2  0
 25 11  1  0
 23 17  1  0
M  END
> <Identifier>
3339.0

> <DILI>
1

$$$$

     RDKit          2D

 18 19  0  0  0  0  0  0  0  0999 V2000
   -4.2558   -1.0895    0.0000 C   0  0  0  0  0  0  0  0  0  0  0  0
   -2.7613   -0.9613    0.0000 C   0  0  0  0  0  0  0  0  0  0  0  0
   -1.9030   -2.1914    0.0000 C   0  0  0  0  0  0  0  0  0  0  0  0
   -0.4085   -2.0632    0.0000 O   0  0  0  0  0  0  0  0  0  0  0  0
   -2.5392   -3.5498    0.0000 O   0  0  0  0  0  0  0  0  0  0  0  0
   -2.1251    0.3971    0.0000 C   0  0  0  0  0  0  0  0  0  0  0  0
   -2.9834    1.6273    0.0000 C   0  0  0  0  0  0  0  0  0  0  0  0
   -2.3472    2.9857    0.0000 C   0  0  0  0  0  0  0  0  0  0  0  0
   -0.8527    3.1139    0.0000 C   0  0  0  0  0  0  0  0  0  0  0  0
    0.0057    1.8838    0.0000 C   0  0  0  0  0  0  0  0  0  0  0  0
    1.5002    2.0120    0.0000 O   0  0  0  0  0  0  0  0  0  0  0  0
    2.3585    0.7818    0.0000 C   0  0  0  0  0  0  0  0  0  0  0  0
    1.7223   -0.5766    0.0000 C   0  0  0  0  0  0  0  0  0  0  0  0
    2.5806   -1.8067    0.0000 C   0  0  0  0  0  0  0  0  0  0  0  0
    4.0751   -1.6785    0.0000 C   0  0  0  0  0  0  0  0  0  0  0  0
    4.7113   -0.3201    0.0000 C   0  0  0  0  0  0  0  0  0  0  0  0
    3.8530    0.9101    0.0000 C   0  0  0  0  0  0  0  0  0  0  0  0
   -0.6306    0.5254    0.0000 C   0  0  0  0  0  0  0  0  0  0  0  0
  1  2  1  0
  2  3  1  0
  3  4  2  0
  3  5  1  0
  2  6  1  0
  6  7  2  0
  7  8  1  0
  8  9  2  0
  9 10  1  0
 10 11  1  0
 11 12  1  0
 12 13  2  0
 13 14  1  0
 14 15  2  0
 15 16  1  0
 16 17  2  0
 10 18  2  0
 18  6  1  0
 17 12  1  0
M  END
> <Identifier>
3342.0

> <DILI>
1

$$$$

     RDKit          2D

 25 27  0  0  0  0  0  0  0  0999 V2000
    4.0236   -4.3317    0.0000 C   0  0  0  0  0  0  0  0  0  0  0  0
    3.2118   -3.0703    0.0000 C   0  0  0  0  0  0  0  0  0  0  0  0
    3.8983   -1.7366    0.0000 C   0  0  0  0  0  0  0  0  0  0  0  0
    5.3965   -1.6643    0.0000 O   0  0  0  0  0  0  0  0  0  0  0  0
    3.0865   -0.4753    0.0000 N   0  0  0  0  0  0  0  0  0  0  0  0
    3.7730    0.8584    0.0000 C   0  0  0  0  0  0  0  0  0  0  0  0
    5.2713    0.9308    0.0000 C   0  0  0  0  0  0  0  0  0  0  0  0
    5.9577    2.2645    0.0000 C   0  0  0  0  0  0  0  0  0  0  0  0
    5.1460    3.5258    0.0000 C   0  0  0  0  0  0  0  0  0  0  0  0
    3.6477    3.4535    0.0000 C   0  0  0  0  0  0  0  0  0  0  0  0
    2.9612    2.1198    0.0000 C   0  0  0  0  0  0  0  0  0  0  0  0
    1.5883   -0.5476    0.0000 C   0  0  0  0  0  0  0  0  0  0  0  0
    0.7765    0.7138    0.0000 C   0  0  0  0  0  0  0  0  0  0  0  0
   -0.7218    0.6414    0.0000 C   0  0  0  0  0  0  0  0  0  0  0  0
   -1.4083   -0.6922    0.0000 N   0  0  0  0  0  0  0  0  0  0  0  0
   -2.9065   -0.7646    0.0000 C   0  0  0  0  0  0  0  0  0  0  0  0
   -3.7183    0.4968    0.0000 C   0  0  0  0  0  0  0  0  0  0  0  0
   -5.2165    0.4245    0.0000 C   0  0  0  0  0  0  0  0  0  0  0  0
   -6.0283    1.6858    0.0000 C   0  0  0  0  0  0  0  0  0  0  0  0
   -7.5266    1.6135    0.0000 C   0  0  0  0  0  0  0  0  0  0  0  0
   -8.2130    0.2798    0.0000 C   0  0  0  0  0  0  0  0  0  0  0  0
   -7.4013   -0.9816    0.0000 C   0  0  0  0  0  0  0  0  0  0  0  0
   -5.9030   -0.9092    0.0000 C   0  0  0  0  0  0  0  0  0  0  0  0
   -0.5965   -1.9536    0.0000 C   0  0  0  0  0  0  0  0  0  0  0  0
    0.9018   -1.8813    0.0000 C   0  0  0  0  0  0  0  0  0  0  0  0
  1  2  1  0
  2  3  1  0
  3  4  2  0
  3  5  1  0
  5  6  1  0
  6  7  2  0
  7  8  1  0
  8  9  2  0
  9 10  1  0
 10 11  2  0
  5 12  1  0
 12 13  1  0
 13 14  1  0
 14 15  1  0
 15 16  1  0
 16 17  1  0
 17 18  1  0
 18 19  2  0
 19 20  1  0
 20 21  2  0
 21 22  1  0
 22 23  2  0
 15 24  1  0
 24 25  1  0
 11  6  1  0
 25 12  1  0
 23 18  1  0
M  END
> <Identifier>
3345.0

> <DILI>
0

$$$$

     RDKit          2D

 37 40  0  0  0  0  0  0  0  0999 V2000
   -9.2764   -1.7317    0.0000 C   0  0  0  0  0  0  0  0  0  0  0  0
   -9.6226   -0.2722    0.0000 C   0  0  0  0  0  0  0  0  0  0  0  0
   -9.9687    1.1873    0.0000 C   0  0  0  0  0  0  0  0  0  0  0  0
  -11.0821   -0.6183    0.0000 C   0  0  0  0  0  0  0  0  0  0  0  0
  -12.1116    0.4726    0.0000 O   0  0  0  0  0  0  0  0  0  0  0  0
  -11.5121   -2.0554    0.0000 O   0  0  0  0  0  0  0  0  0  0  0  0
   -8.1631    0.0740    0.0000 C   0  0  0  0  0  0  0  0  0  0  0  0
   -7.7331    1.5110    0.0000 C   0  0  0  0  0  0  0  0  0  0  0  0
   -6.2735    1.8571    0.0000 C   0  0  0  0  0  0  0  0  0  0  0  0
   -5.2440    0.7662    0.0000 C   0  0  0  0  0  0  0  0  0  0  0  0
   -3.7845    1.1124    0.0000 C   0  0  0  0  0  0  0  0  0  0  0  0
   -3.3545    2.5494    0.0000 O   0  0  0  0  0  0  0  0  0  0  0  0
   -2.7550    0.0215    0.0000 C   0  0  0  0  0  0  0  0  0  0  0  0
   -1.2955    0.3676    0.0000 C   0  0  0  0  0  0  0  0  0  0  0  0
   -0.2659   -0.7233    0.0000 C   0  0  0  0  0  0  0  0  0  0  0  0
    1.1936   -0.3772    0.0000 N   0  0  0  0  0  0  0  0  0  0  0  0
    2.2231   -1.4681    0.0000 C   0  0  0  0  0  0  0  0  0  0  0  0
    3.6826   -1.1220    0.0000 C   0  0  0  0  0  0  0  0  0  0  0  0
    4.1126    0.3151    0.0000 C   0  0  0  0  0  0  0  0  0  0  0  0
    5.5721    0.6612    0.0000 C   0  0  0  0  0  0  0  0  0  0  0  0
    5.2260    2.1207    0.0000 O   0  0  0  0  0  0  0  0  0  0  0  0
    7.0316    1.0073    0.0000 C   0  0  0  0  0  0  0  0  0  0  0  0
    8.0612   -0.0836    0.0000 C   0  0  0  0  0  0  0  0  0  0  0  0
    9.5207    0.2626    0.0000 C   0  0  0  0  0  0  0  0  0  0  0  0
    9.9507    1.6996    0.0000 C   0  0  0  0  0  0  0  0  0  0  0  0
    8.9212    2.7905    0.0000 C   0  0  0  0  0  0  0  0  0  0  0  0
    7.4616    2.4444    0.0000 C   0  0  0  0  0  0  0  0  0  0  0  0
    5.9183   -0.7983    0.0000 C   0  0  0  0  0  0  0  0  0  0  0  0
    4.8274   -1.8278    0.0000 C   0  0  0  0  0  0  0  0  0  0  0  0
    5.1735   -3.2873    0.0000 C   0  0  0  0  0  0  0  0  0  0  0  0
    6.6105   -3.7173    0.0000 C   0  0  0  0  0  0  0  0  0  0  0  0
    7.7014   -2.6878    0.0000 C   0  0  0  0  0  0  0  0  0  0  0  0
    7.3553   -1.2283    0.0000 C   0  0  0  0  0  0  0  0  0  0  0  0
    3.0831    1.4060    0.0000 C   0  0  0  0  0  0  0  0  0  0  0  0
    1.6236    1.0599    0.0000 C   0  0  0  0  0  0  0  0  0  0  0  0
   -5.6740   -0.6708    0.0000 C   0  0  0  0  0  0  0  0  0  0  0  0
   -7.1335   -1.0170    0.0000 C   0  0  0  0  0  0  0  0  0  0  0  0
  1  2  1  0
  2  3  1  0
  2  4  1  0
  4  5  2  0
  4  6  1  0
  2  7  1  0
  7  8  2  0
  8  9  1  0
  9 10  2  0
 10 11  1  0
 11 12  1  0
 11 13  1  0
 13 14  1  0
 14 15  1  0
 15 16  1  0
 16 17  1  0
 17 18  1  0
 18 19  1  0
 19 20  1  0
 20 21  1  0
 20 22  1  0
 22 23  2  0
 23 24  1  0
 24 25  2  0
 25 26  1  0
 26 27  2  0
 20 28  1  0
 28 29  2  0
 29 30  1  0
 30 31  2  0
 31 32  1  0
 32 33  2  0
 19 34  1  0
 34 35  1  0
 10 36  1  0
 36 37  2  0
 37  7  1  0
 35 16  1  0
 27 22  1  0
 33 28  1  0
M  END
> <Identifier>
3348.0

> <DILI>
0

$$$$

     RDKit          2D

 27 30  0  0  0  0  0  0  0  0999 V2000
    2.7882    3.7975    0.0000 O   0  0  0  0  0  0  0  0  0  0  0  0
    2.1033    2.4630    0.0000 C   0  0  0  0  0  0  0  0  0  0  0  0
    2.9164    1.2026    0.0000 C   0  0  0  0  0  0  0  0  0  0  0  0
    4.4146    1.2766    0.0000 O   0  0  0  0  0  0  0  0  0  0  0  0
    5.2278    0.0161    0.0000 C   0  0  0  0  0  0  0  0  0  0  0  0
    4.5428   -1.3183    0.0000 C   0  0  0  0  0  0  0  0  0  0  0  0
    5.3560   -2.5788    0.0000 C   0  0  0  0  0  0  0  0  0  0  0  0
    6.8542   -2.5048    0.0000 C   0  0  0  0  0  0  0  0  0  0  0  0
    7.6673   -3.7652    0.0000 Cl  0  0  0  0  0  0  0  0  0  0  0  0
    7.5392   -1.1703    0.0000 C   0  0  0  0  0  0  0  0  0  0  0  0
    6.7260    0.0901    0.0000 C   0  0  0  0  0  0  0  0  0  0  0  0
    0.6051    2.3890    0.0000 N   0  0  0  0  0  0  0  0  0  0  0  0
   -0.2081    3.6494    0.0000 C   0  0  0  0  0  0  0  0  0  0  0  0
   -1.7063    3.5754    0.0000 C   0  0  0  0  0  0  0  0  0  0  0  0
   -2.3913    2.2410    0.0000 N   0  0  0  0  0  0  0  0  0  0  0  0
   -3.8894    2.1670    0.0000 C   0  0  0  0  0  0  0  0  0  0  0  0
   -4.5744    0.8325    0.0000 C   0  0  0  0  0  0  0  0  0  0  0  0
   -6.0726    0.7585    0.0000 C   0  0  0  0  0  0  0  0  0  0  0  0
   -6.7576   -0.5760    0.0000 C   0  0  0  0  0  0  0  0  0  0  0  0
   -5.9444   -1.8364    0.0000 C   0  0  0  0  0  0  0  0  0  0  0  0
   -4.4462   -1.7624    0.0000 C   0  0  0  0  0  0  0  0  0  0  0  0
   -3.7612   -0.4280    0.0000 C   0  0  0  0  0  0  0  0  0  0  0  0
   -3.9129   -3.1644    0.0000 O   0  0  0  0  0  0  0  0  0  0  0  0
   -5.0814   -4.1049    0.0000 C   0  0  0  0  0  0  0  0  0  0  0  0
   -6.3370   -3.2842    0.0000 O   0  0  0  0  0  0  0  0  0  0  0  0
   -1.5781    0.9805    0.0000 C   0  0  0  0  0  0  0  0  0  0  0  0
   -0.0799    1.0545    0.0000 C   0  0  0  0  0  0  0  0  0  0  0  0
  1  2  2  0
  2  3  1  0
  3  4  1  0
  4  5  1  0
  5  6  2  0
  6  7  1  0
  7  8  2  0
  8  9  1  0
  8 10  1  0
 10 11  2  0
  2 12  1  0
 12 13  1  0
 13 14  1  0
 14 15  1  0
 15 16  1  0
 16 17  1  0
 17 18  2  0
 18 19  1  0
 19 20  2  0
 20 21  1  0
 21 22  2  0
 21 23  1  0
 23 24  1  0
 24 25  1  0
 15 26  1  0
 26 27  1  0
 11  5  1  0
 27 12  1  0
 22 17  1  0
 25 20  1  0
M  END
> <Identifier>
3351.0

> <DILI>
1

$$$$

     RDKit          2D

 29 32  0  0  0  0  0  0  0  0999 V2000
    5.8356   -0.0239    0.0000 C   0  0  0  0  0  0  0  0  0  0  0  0
    4.4177   -0.5132    0.0000 C   0  0  0  0  0  0  0  0  0  0  0  0
    3.2849    0.4702    0.0000 C   0  0  0  0  0  0  0  0  0  0  0  0
    3.5702    1.9428    0.0000 C   0  0  0  0  0  0  0  0  0  0  0  0
    4.9881    2.4321    0.0000 C   0  0  0  0  0  0  0  0  0  0  0  0
    5.2733    3.9047    0.0000 C   0  0  0  0  0  0  0  0  0  0  0  0
    4.1406    4.8881    0.0000 C   0  0  0  0  0  0  0  0  0  0  0  0
    2.7227    4.3988    0.0000 C   0  0  0  0  0  0  0  0  0  0  0  0
    2.4374    2.9261    0.0000 C   0  0  0  0  0  0  0  0  0  0  0  0
    1.8670   -0.0191    0.0000 O   0  0  0  0  0  0  0  0  0  0  0  0
    1.5818   -1.4918    0.0000 C   0  0  0  0  0  0  0  0  0  0  0  0
    0.1638   -1.9811    0.0000 C   0  0  0  0  0  0  0  0  0  0  0  0
   -0.9689   -0.9978    0.0000 C   0  0  0  0  0  0  0  0  0  0  0  0
   -0.6837    0.4749    0.0000 O   0  0  0  0  0  0  0  0  0  0  0  0
   -2.3869   -1.4871    0.0000 O   0  0  0  0  0  0  0  0  0  0  0  0
   -3.5196   -0.5037    0.0000 C   0  0  0  0  0  0  0  0  0  0  0  0
   -4.9375   -0.9931    0.0000 C   0  0  0  0  0  0  0  0  0  0  0  0
   -6.0703   -0.0097    0.0000 N   0  0  0  0  0  0  0  0  0  0  0  0
   -5.7850    1.4629    0.0000 C   0  0  0  0  0  0  0  0  0  0  0  0
   -6.9178    2.4462    0.0000 C   0  0  0  0  0  0  0  0  0  0  0  0
   -8.3357    1.9569    0.0000 C   0  0  0  0  0  0  0  0  0  0  0  0
   -8.6209    0.4843    0.0000 C   0  0  0  0  0  0  0  0  0  0  0  0
   -7.4882   -0.4990    0.0000 C   0  0  0  0  0  0  0  0  0  0  0  0
   -0.1214   -3.4537    0.0000 C   0  0  0  0  0  0  0  0  0  0  0  0
    1.0113   -4.4370    0.0000 C   0  0  0  0  0  0  0  0  0  0  0  0
    2.4293   -3.9477    0.0000 C   0  0  0  0  0  0  0  0  0  0  0  0
    2.7145   -2.4751    0.0000 C   0  0  0  0  0  0  0  0  0  0  0  0
    4.1324   -1.9858    0.0000 C   0  0  0  0  0  0  0  0  0  0  0  0
    5.2652   -2.9691    0.0000 O   0  0  0  0  0  0  0  0  0  0  0  0
  1  2  1  0
  2  3  2  0
  3  4  1  0
  4  5  2  0
  5  6  1  0
  6  7  2  0
  7  8  1  0
  8  9  2  0
  3 10  1  0
 10 11  1  0
 11 12  2  0
 12 13  1  0
 13 14  2  0
 13 15  1  0
 15 16  1  0
 16 17  1  0
 17 18  1  0
 18 19  1  0
 19 20  1  0
 20 21  1  0
 21 22  1  0
 22 23  1  0
 12 24  1  0
 24 25  2  0
 25 26  1  0
 26 27  2  0
 27 28  1  0
 28 29  2  0
 28  2  1  0
  9  4  1  0
 27 11  1  0
 23 18  1  0
M  END
> <Identifier>
3354.0

> <DILI>
0

$$$$

     RDKit          2D

 22 24  0  0  0  0  0  0  0  0999 V2000
    0.0205   -1.7316    0.0000 O   0  0  0  0  0  0  0  0  0  0  0  0
    0.0996   -0.2337    0.0000 C   0  0  0  0  0  0  0  0  0  0  0  0
   -1.3983   -0.1545    0.0000 C   0  0  0  0  0  0  0  0  0  0  0  0
   -2.2158   -1.4121    0.0000 N   0  0  0  0  0  0  0  0  0  0  0  0
   -1.6789   -2.8127    0.0000 C   0  0  0  0  0  0  0  0  0  0  0  0
   -2.8450   -3.7562    0.0000 N   0  0  0  0  0  0  0  0  0  0  0  0
   -4.1026   -2.9387    0.0000 C   0  0  0  0  0  0  0  0  0  0  0  0
   -3.7138   -1.4900    0.0000 N   0  0  0  0  0  0  0  0  0  0  0  0
    0.1788    1.2642    0.0000 C   0  0  0  0  0  0  0  0  0  0  0  0
   -1.0788    2.0818    0.0000 N   0  0  0  0  0  0  0  0  0  0  0  0
   -2.4794    1.5448    0.0000 C   0  0  0  0  0  0  0  0  0  0  0  0
   -3.4229    2.7110    0.0000 N   0  0  0  0  0  0  0  0  0  0  0  0
   -2.6054    3.9686    0.0000 C   0  0  0  0  0  0  0  0  0  0  0  0
   -1.1567    3.5797    0.0000 N   0  0  0  0  0  0  0  0  0  0  0  0
    1.5975   -0.3128    0.0000 C   0  0  0  0  0  0  0  0  0  0  0  0
    2.2779   -1.6496    0.0000 C   0  0  0  0  0  0  0  0  0  0  0  0
    3.7759   -1.7288    0.0000 C   0  0  0  0  0  0  0  0  0  0  0  0
    4.5934   -0.4712    0.0000 C   0  0  0  0  0  0  0  0  0  0  0  0
    6.0913   -0.5503    0.0000 F   0  0  0  0  0  0  0  0  0  0  0  0
    3.9130    0.8657    0.0000 C   0  0  0  0  0  0  0  0  0  0  0  0
    2.4151    0.9448    0.0000 C   0  0  0  0  0  0  0  0  0  0  0  0
    1.7347    2.2816    0.0000 F   0  0  0  0  0  0  0  0  0  0  0  0
  1  2  1  0
  2  3  1  0
  3  4  1  0
  4  5  1  0
  5  6  2  0
  6  7  1  0
  7  8  2  0
  2  9  1  0
  9 10  1  0
 10 11  1  0
 11 12  2  0
 12 13  1  0
 13 14  2  0
  2 15  1  0
 15 16  2  0
 16 17  1  0
 17 18  2  0
 18 19  1  0
 18 20  1  0
 20 21  2  0
 21 22  1  0
  8  4  1  0
 14 10  1  0
 21 15  1  0
M  END
> <Identifier>
3365.0

> <DILI>
1

$$$$

     RDKit          2D

  9  9  0  0  0  0  0  0  0  0999 V2000
    1.8243   -1.9450    0.0000 N   0  0  0  0  0  0  0  0  0  0  0  0
    0.7981   -0.8510    0.0000 C   0  0  0  0  0  0  0  0  0  0  0  0
   -0.6625   -1.1926    0.0000 N   0  0  0  0  0  0  0  0  0  0  0  0
   -1.6886   -0.0985    0.0000 C   0  0  0  0  0  0  0  0  0  0  0  0
   -3.1492   -0.4401    0.0000 O   0  0  0  0  0  0  0  0  0  0  0  0
   -1.2542    1.3372    0.0000 N   0  0  0  0  0  0  0  0  0  0  0  0
    0.2064    1.6788    0.0000 C   0  0  0  0  0  0  0  0  0  0  0  0
    1.2325    0.5848    0.0000 C   0  0  0  0  0  0  0  0  0  0  0  0
    2.6931    0.9264    0.0000 F   0  0  0  0  0  0  0  0  0  0  0  0
  1  2  1  0
  2  3  1  0
  3  4  1  0
  4  5  2  0
  4  6  1  0
  6  7  2  0
  7  8  1  0
  8  9  1  0
  8  2  2  0
M  END
> <Identifier>
3366.0

> <DILI>
1

$$$$

     RDKit          2D

  9  9  0  0  0  0  0  0  0  0999 V2000
   -3.1492   -0.4401    0.0000 O   0  0  0  0  0  0  0  0  0  0  0  0
   -1.6886   -0.0985    0.0000 C   0  0  0  0  0  0  0  0  0  0  0  0
   -1.2542    1.3372    0.0000 N   0  0  0  0  0  0  0  0  0  0  0  0
    0.2064    1.6788    0.0000 C   0  0  0  0  0  0  0  0  0  0  0  0
    1.2325    0.5848    0.0000 C   0  0  0  0  0  0  0  0  0  0  0  0
    2.6931    0.9264    0.0000 F   0  0  0  0  0  0  0  0  0  0  0  0
    0.7981   -0.8510    0.0000 C   0  0  0  0  0  0  0  0  0  0  0  0
    1.8243   -1.9450    0.0000 O   0  0  0  0  0  0  0  0  0  0  0  0
   -0.6625   -1.1926    0.0000 N   0  0  0  0  0  0  0  0  0  0  0  0
  1  2  2  0
  2  3  1  0
  3  4  1  0
  4  5  2  0
  5  6  1  0
  5  7  1  0
  7  8  2  0
  7  9  1  0
  9  2  1  0
M  END
> <Identifier>
3385.0

> <DILI>
1

$$$$

     RDKit          2D

 22 23  0  0  0  0  0  0  0  0999 V2000
   -7.0918   -0.3366    0.0000 C   0  0  0  0  0  0  0  0  0  0  0  0
   -5.9155   -1.2675    0.0000 N   0  0  0  0  0  0  0  0  0  0  0  0
   -4.5213   -0.7142    0.0000 C   0  0  0  0  0  0  0  0  0  0  0  0
   -3.3450   -1.6450    0.0000 C   0  0  0  0  0  0  0  0  0  0  0  0
   -1.9508   -1.0917    0.0000 C   0  0  0  0  0  0  0  0  0  0  0  0
   -0.7745   -2.0226    0.0000 O   0  0  0  0  0  0  0  0  0  0  0  0
    0.6197   -1.4693    0.0000 C   0  0  0  0  0  0  0  0  0  0  0  0
    1.7960   -2.4001    0.0000 C   0  0  0  0  0  0  0  0  0  0  0  0
    3.1902   -1.8468    0.0000 C   0  0  0  0  0  0  0  0  0  0  0  0
    3.4082   -0.3628    0.0000 C   0  0  0  0  0  0  0  0  0  0  0  0
    4.8024    0.1905    0.0000 C   0  0  0  0  0  0  0  0  0  0  0  0
    6.1967    0.7438    0.0000 F   0  0  0  0  0  0  0  0  0  0  0  0
    5.3557   -1.2037    0.0000 F   0  0  0  0  0  0  0  0  0  0  0  0
    4.2492    1.5847    0.0000 F   0  0  0  0  0  0  0  0  0  0  0  0
    2.2319    0.5681    0.0000 C   0  0  0  0  0  0  0  0  0  0  0  0
    0.8377    0.0148    0.0000 C   0  0  0  0  0  0  0  0  0  0  0  0
   -1.7328    0.3923    0.0000 C   0  0  0  0  0  0  0  0  0  0  0  0
   -0.3386    0.9456    0.0000 C   0  0  0  0  0  0  0  0  0  0  0  0
   -0.1206    2.4297    0.0000 C   0  0  0  0  0  0  0  0  0  0  0  0
   -1.2968    3.3605    0.0000 C   0  0  0  0  0  0  0  0  0  0  0  0
   -2.6911    2.8072    0.0000 C   0  0  0  0  0  0  0  0  0  0  0  0
   -2.9091    1.3231    0.0000 C   0  0  0  0  0  0  0  0  0  0  0  0
  1  2  1  0
  2  3  1  0
  3  4  1  0
  4  5  1  0
  5  6  1  0
  6  7  1  0
  7  8  2  0
  8  9  1  0
  9 10  2  0
 10 11  1  0
 11 12  1  0
 11 13  1  0
 11 14  1  0
 10 15  1  0
 15 16  2  0
  5 17  1  0
 17 18  2  0
 18 19  1  0
 19 20  2  0
 20 21  1  0
 21 22  2  0
 16  7  1  0
 22 17  1  0
M  END
> <Identifier>
3386.0

> <DILI>
0

$$$$

     RDKit          2D

 18 19  0  0  0  0  0  0  0  0999 V2000
    4.1449   -1.9984    0.0000 C   0  0  0  0  0  0  0  0  0  0  0  0
    3.5014   -0.6435    0.0000 C   0  0  0  0  0  0  0  0  0  0  0  0
    4.3530    0.5913    0.0000 C   0  0  0  0  0  0  0  0  0  0  0  0
    3.7095    1.9462    0.0000 O   0  0  0  0  0  0  0  0  0  0  0  0
    5.8482    0.4711    0.0000 O   0  0  0  0  0  0  0  0  0  0  0  0
    2.0062   -0.5233    0.0000 C   0  0  0  0  0  0  0  0  0  0  0  0
    1.1545   -1.7580    0.0000 C   0  0  0  0  0  0  0  0  0  0  0  0
   -0.3407   -1.6379    0.0000 C   0  0  0  0  0  0  0  0  0  0  0  0
   -0.9842   -0.2829    0.0000 C   0  0  0  0  0  0  0  0  0  0  0  0
   -2.4793   -0.1627    0.0000 C   0  0  0  0  0  0  0  0  0  0  0  0
   -3.1228    1.1923    0.0000 C   0  0  0  0  0  0  0  0  0  0  0  0
   -4.6180    1.3125    0.0000 C   0  0  0  0  0  0  0  0  0  0  0  0
   -5.4697    0.0777    0.0000 C   0  0  0  0  0  0  0  0  0  0  0  0
   -4.8262   -1.2773    0.0000 C   0  0  0  0  0  0  0  0  0  0  0  0
   -3.3310   -1.3975    0.0000 C   0  0  0  0  0  0  0  0  0  0  0  0
   -0.1325    0.9519    0.0000 C   0  0  0  0  0  0  0  0  0  0  0  0
   -0.7760    2.3068    0.0000 F   0  0  0  0  0  0  0  0  0  0  0  0
    1.3627    0.8317    0.0000 C   0  0  0  0  0  0  0  0  0  0  0  0
  1  2  1  0
  2  3  1  0
  3  4  2  0
  3  5  1  0
  2  6  1  0
  6  7  2  0
  7  8  1  0
  8  9  2  0
  9 10  1  0
 10 11  2  0
 11 12  1  0
 12 13  2  0
 13 14  1  0
 14 15  2  0
  9 16  1  0
 16 17  1  0
 16 18  2  0
 18  6  1  0
 15 10  1  0
M  END
> <Identifier>
3394.0

> <DILI>
1

$$$$

     RDKit          2D

 19 19  0  0  0  0  0  0  0  0999 V2000
   -6.1277    0.6439    0.0000 C   0  0  0  0  0  0  0  0  0  0  0  0
   -4.9609   -0.2988    0.0000 C   0  0  0  0  0  0  0  0  0  0  0  0
   -5.1940   -1.7805    0.0000 C   0  0  0  0  0  0  0  0  0  0  0  0
   -3.5612    0.2403    0.0000 C   0  0  0  0  0  0  0  0  0  0  0  0
   -3.3281    1.7221    0.0000 O   0  0  0  0  0  0  0  0  0  0  0  0
   -2.3944   -0.7024    0.0000 N   0  0  0  0  0  0  0  0  0  0  0  0
   -0.9946   -0.1633    0.0000 C   0  0  0  0  0  0  0  0  0  0  0  0
   -0.7616    1.3185    0.0000 C   0  0  0  0  0  0  0  0  0  0  0  0
    0.6382    1.8576    0.0000 C   0  0  0  0  0  0  0  0  0  0  0  0
    1.8049    0.9149    0.0000 C   0  0  0  0  0  0  0  0  0  0  0  0
    3.2047    1.4540    0.0000 N   0  0  0  0  0  4  0  0  0  0  0  0
    4.3715    0.5113    0.0000 O   0  0  0  0  0  0  0  0  0  0  0  0
    3.4377    2.9358    0.0000 O   0  0  0  0  0  1  0  0  0  0  0  0
    1.5719   -0.5669    0.0000 C   0  0  0  0  0  0  0  0  0  0  0  0
    2.7387   -1.5096    0.0000 C   0  0  0  0  0  0  0  0  0  0  0  0
    3.9054   -2.4523    0.0000 F   0  0  0  0  0  0  0  0  0  0  0  0
    1.7960   -2.6763    0.0000 F   0  0  0  0  0  0  0  0  0  0  0  0
    3.6814   -0.3428    0.0000 F   0  0  0  0  0  0  0  0  0  0  0  0
    0.1721   -1.1060    0.0000 C   0  0  0  0  0  0  0  0  0  0  0  0
  1  2  1  0
  2  3  1  0
  2  4  1  0
  4  5  2  0
  4  6  1  0
  6  7  1  0
  7  8  2  0
  8  9  1  0
  9 10  2  0
 10 11  1  0
 11 12  2  0
 11 13  1  0
 10 14  1  0
 14 15  1  0
 15 16  1  0
 15 17  1  0
 15 18  1  0
 14 19  2  0
 19  7  1  0
M  CHG  2  11   1  13  -1
M  END
> <Identifier>
3397.0

> <DILI>
1

$$$$

     RDKit          2D

 22 22  0  0  0  0  0  0  0  0999 V2000
   -7.2903    3.0873    0.0000 C   0  0  0  0  0  0  0  0  0  0  0  0
   -5.7961    3.2200    0.0000 O   0  0  0  0  0  0  0  0  0  0  0  0
   -4.9342    1.9923    0.0000 C   0  0  0  0  0  0  0  0  0  0  0  0
   -3.4401    2.1250    0.0000 C   0  0  0  0  0  0  0  0  0  0  0  0
   -2.5781    0.8974    0.0000 C   0  0  0  0  0  0  0  0  0  0  0  0
   -1.0840    1.0301    0.0000 C   0  0  0  0  0  0  0  0  0  0  0  0
   -0.2220   -0.1976    0.0000 C   0  0  0  0  0  0  0  0  0  0  0  0
   -0.8542   -1.5578    0.0000 N   0  0  0  0  0  0  0  0  0  0  0  0
   -2.3483   -1.6905    0.0000 O   0  0  0  0  0  0  0  0  0  0  0  0
   -2.9805   -3.0508    0.0000 C   0  0  0  0  0  0  0  0  0  0  0  0
   -4.4746   -3.1835    0.0000 C   0  0  0  0  0  0  0  0  0  0  0  0
   -5.1068   -4.5437    0.0000 N   0  0  0  0  0  0  0  0  0  0  0  0
    1.2721   -0.0649    0.0000 C   0  0  0  0  0  0  0  0  0  0  0  0
    1.9043    1.2954    0.0000 C   0  0  0  0  0  0  0  0  0  0  0  0
    3.3984    1.4281    0.0000 C   0  0  0  0  0  0  0  0  0  0  0  0
    4.2603    0.2004    0.0000 C   0  0  0  0  0  0  0  0  0  0  0  0
    5.7545    0.3331    0.0000 C   0  0  0  0  0  0  0  0  0  0  0  0
    7.2486    0.4658    0.0000 F   0  0  0  0  0  0  0  0  0  0  0  0
    5.8871   -1.1610    0.0000 F   0  0  0  0  0  0  0  0  0  0  0  0
    5.6218    1.8272    0.0000 F   0  0  0  0  0  0  0  0  0  0  0  0
    3.6282   -1.1598    0.0000 C   0  0  0  0  0  0  0  0  0  0  0  0
    2.1340   -1.2925    0.0000 C   0  0  0  0  0  0  0  0  0  0  0  0
  1  2  1  0
  2  3  1  0
  3  4  1  0
  4  5  1  0
  5  6  1  0
  6  7  1  0
  7  8  2  3
  8  9  1  0
  9 10  1  0
 10 11  1  0
 11 12  1  0
  7 13  1  0
 13 14  2  0
 14 15  1  0
 15 16  2  0
 16 17  1  0
 17 18  1  0
 17 19  1  0
 17 20  1  0
 16 21  1  0
 21 22  2  0
 22 13  1  0
M  END
> <Identifier>
3404.0

> <DILI>
0

$$$$

     RDKit          2D

 16 17  0  0  0  0  0  0  0  0999 V2000
    4.2807   -2.2091    0.0000 O   0  0  0  0  0  0  0  0  0  0  0  0
    4.2159   -0.7105    0.0000 C   0  0  0  0  0  0  0  0  0  0  0  0
    5.3903    0.2227    0.0000 O   0  0  0  0  0  0  0  0  0  0  0  0
    4.8656    1.6280    0.0000 C   0  0  0  0  0  0  0  0  0  0  0  0
    3.3670    1.5632    0.0000 C   0  0  0  0  0  0  0  0  0  0  0  0
    2.9655    0.1180    0.0000 N   0  0  0  0  0  0  0  0  0  0  0  0
    1.5602   -0.4067    0.0000 N   0  0  0  0  0  0  0  0  0  0  0  0
    0.4032    0.5479    0.0000 C   0  0  0  0  0  0  0  0  0  0  0  0
   -1.0020    0.0233    0.0000 C   0  0  0  0  0  0  0  0  0  0  0  0
   -1.4035   -1.4220    0.0000 C   0  0  0  0  0  0  0  0  0  0  0  0
   -2.9021   -1.4867    0.0000 C   0  0  0  0  0  0  0  0  0  0  0  0
   -3.4268   -0.0815    0.0000 C   0  0  0  0  0  0  0  0  0  0  0  0
   -4.8721    0.3201    0.0000 N   0  0  0  0  0  4  0  0  0  0  0  0
   -5.9424   -0.7308    0.0000 O   0  0  0  0  0  0  0  0  0  0  0  0
   -5.2470    1.7725    0.0000 O   0  0  0  0  0  1  0  0  0  0  0  0
   -2.2525    0.8518    0.0000 O   0  0  0  0  0  0  0  0  0  0  0  0
  1  2  2  0
  2  3  1  0
  3  4  1  0
  4  5  1  0
  5  6  1  0
  6  7  1  0
  7  8  2  3
  8  9  1  0
  9 10  2  0
 10 11  1  0
 11 12  2  0
 12 13  1  0
 13 14  2  0
 13 15  1  0
 12 16  1  0
  6  2  1  0
 16  9  1  0
M  CHG  2  13   1  15  -1
M  END
> <Identifier>
3435.0

> <DILI>
1

$$$$

     RDKit          2D

 21 22  0  0  0  0  0  0  0  0999 V2000
   -5.8704   -0.6936    0.0000 N   0  0  0  0  0  0  0  0  0  0  0  0
   -4.3827   -0.5020    0.0000 S   0  0  0  0  0  0  0  0  0  0  0  0
   -4.5743    0.9857    0.0000 O   0  0  0  0  0  0  0  0  0  0  0  0
   -4.1911   -1.9898    0.0000 O   0  0  0  0  0  0  0  0  0  0  0  0
   -2.8950   -0.3105    0.0000 C   0  0  0  0  0  0  0  0  0  0  0  0
   -2.3171    1.0737    0.0000 C   0  0  0  0  0  0  0  0  0  0  0  0
   -0.8294    1.2653    0.0000 C   0  0  0  0  0  0  0  0  0  0  0  0
   -0.2514    2.6495    0.0000 C   0  0  0  0  0  0  0  0  0  0  0  0
   -1.1612    3.8421    0.0000 O   0  0  0  0  0  0  0  0  0  0  0  0
    1.2363    2.8411    0.0000 O   0  0  0  0  0  0  0  0  0  0  0  0
    0.0804    0.0727    0.0000 C   0  0  0  0  0  0  0  0  0  0  0  0
    1.5681    0.2643    0.0000 N   0  0  0  0  0  0  0  0  0  0  0  0
    2.4779   -0.9283    0.0000 C   0  0  0  0  0  0  0  0  0  0  0  0
    3.9656   -0.7367    0.0000 C   0  0  0  0  0  0  0  0  0  0  0  0
    4.6851    0.5795    0.0000 C   0  0  0  0  0  0  0  0  0  0  0  0
    6.1592    0.3020    0.0000 C   0  0  0  0  0  0  0  0  0  0  0  0
    6.3508   -1.1857    0.0000 C   0  0  0  0  0  0  0  0  0  0  0  0
    4.9951   -1.8277    0.0000 O   0  0  0  0  0  0  0  0  0  0  0  0
   -0.4975   -1.3115    0.0000 C   0  0  0  0  0  0  0  0  0  0  0  0
   -1.9852   -1.5031    0.0000 C   0  0  0  0  0  0  0  0  0  0  0  0
   -2.5632   -2.8873    0.0000 Cl  0  0  0  0  0  0  0  0  0  0  0  0
  1  2  1  0
  2  3  2  0
  2  4  2  0
  2  5  1  0
  5  6  2  0
  6  7  1  0
  7  8  1  0
  8  9  2  0
  8 10  1  0
  7 11  2  0
 11 12  1  0
 12 13  1  0
 13 14  1  0
 14 15  2  0
 15 16  1  0
 16 17  2  0
 17 18  1  0
 11 19  1  0
 19 20  2  0
 20 21  1  0
 20  5  1  0
 18 14  1  0
M  END
> <Identifier>
3440.0

> <DILI>
1

$$$$

     RDKit          2D

 12 12  0  0  0  0  0  0  0  0999 V2000
    0.4929   -2.3374    0.0000 N   0  0  0  0  0  0  0  0  0  0  0  0
    0.8312   -0.8760    0.0000 C   0  0  0  0  0  0  0  0  0  0  0  0
   -0.2652    0.1477    0.0000 C   0  0  0  0  0  0  0  0  0  0  0  0
    0.9333    1.0497    0.0000 C   0  0  0  0  0  0  0  0  0  0  0  0
    2.3137    0.4627    0.0000 C   0  0  0  0  0  0  0  0  0  0  0  0
    2.4956   -1.0262    0.0000 O   0  0  0  0  0  0  0  0  0  0  0  0
    3.5122    1.3647    0.0000 O   0  0  0  0  0  0  0  0  0  0  0  0
   -1.0830   -1.1098    0.0000 C   0  0  0  0  0  0  0  0  0  0  0  0
   -2.5808   -1.0304    0.0000 C   0  0  0  0  0  0  0  0  0  0  0  0
   -3.2610    0.3065    0.0000 C   0  0  0  0  0  0  0  0  0  0  0  0
   -2.4433    1.5640    0.0000 C   0  0  0  0  0  0  0  0  0  0  0  0
   -0.9454    1.4846    0.0000 C   0  0  0  0  0  0  0  0  0  0  0  0
  1  2  1  0
  2  3  1  0
  3  4  1  0
  4  5  1  0
  5  6  2  0
  5  7  1  0
  3  8  1  0
  8  9  1  0
  9 10  1  0
 10 11  1  0
 11 12  1  0
 12  3  1  0
M  END
> <Identifier>
3446.0

> <DILI>
0

$$$$

     RDKit          2D

 33 35  0  0  0  0  0  0  0  0999 V2000
   -4.8294   -4.5016    0.0000 C   0  0  0  0  0  0  0  0  0  0  0  0
   -4.6547   -3.0118    0.0000 N   0  0  0  0  0  0  0  0  0  0  0  0
   -5.8576   -2.1156    0.0000 C   0  0  0  0  0  0  0  0  0  0  0  0
   -7.2351   -2.7093    0.0000 C   0  0  0  0  0  0  0  0  0  0  0  0
   -5.6829   -0.6258    0.0000 C   0  0  0  0  0  0  0  0  0  0  0  0
   -6.8858    0.2703    0.0000 C   0  0  0  0  0  0  0  0  0  0  0  0
   -6.7111    1.7601    0.0000 C   0  0  0  0  0  0  0  0  0  0  0  0
   -5.3336    2.3538    0.0000 C   0  0  0  0  0  0  0  0  0  0  0  0
   -5.1589    3.8435    0.0000 N   0  0  0  0  0  0  0  0  0  0  0  0
   -4.1307    1.4576    0.0000 C   0  0  0  0  0  0  0  0  0  0  0  0
   -2.7532    2.0512    0.0000 O   0  0  0  0  0  0  0  0  0  0  0  0
   -1.5503    1.1550    0.0000 C   0  0  0  0  0  0  0  0  0  0  0  0
   -1.7250   -0.3348    0.0000 C   0  0  0  0  0  0  0  0  0  0  0  0
   -3.1025   -0.9284    0.0000 N   0  0  0  0  0  0  0  0  0  0  0  0
   -0.5221   -1.2309    0.0000 C   0  0  0  0  0  0  0  0  0  0  0  0
    0.8554   -0.6373    0.0000 C   0  0  0  0  0  0  0  0  0  0  0  0
    2.0583   -1.5335    0.0000 N   0  0  0  0  0  0  0  0  0  0  0  0
    1.0301    0.8525    0.0000 C   0  0  0  0  0  0  0  0  0  0  0  0
    2.4076    1.4461    0.0000 O   0  0  0  0  0  0  0  0  0  0  0  0
    3.6105    0.5499    0.0000 C   0  0  0  0  0  0  0  0  0  0  0  0
    3.4358   -0.9399    0.0000 O   0  0  0  0  0  0  0  0  0  0  0  0
    4.6387   -1.8360    0.0000 C   0  0  0  0  0  0  0  0  0  0  0  0
    6.0162   -1.2424    0.0000 C   0  0  0  0  0  0  0  0  0  0  0  0
    7.5137   -1.1557    0.0000 C   0  0  0  0  0  0  0  0  0  0  0  0
    6.3616   -2.7021    0.0000 O   0  0  0  0  0  0  0  0  0  0  0  0
    6.1909    0.2474    0.0000 C   0  0  0  0  0  0  0  0  0  0  0  0
    7.5684    0.8410    0.0000 N   0  0  0  0  0  0  0  0  0  0  0  0
    8.7713   -0.0552    0.0000 C   0  0  0  0  0  0  0  0  0  0  0  0
    4.9880    1.1436    0.0000 C   0  0  0  0  0  0  0  0  0  0  0  0
    5.1627    2.6333    0.0000 O   0  0  0  0  0  0  0  0  0  0  0  0
   -0.1728    1.7487    0.0000 C   0  0  0  0  0  0  0  0  0  0  0  0
    0.0019    3.2384    0.0000 O   0  0  0  0  0  0  0  0  0  0  0  0
   -4.3054   -0.0322    0.0000 O   0  0  0  0  0  0  0  0  0  0  0  0
  1  2  1  0
  2  3  1  0
  3  4  1  0
  3  5  1  0
  5  6  1  0
  6  7  1  0
  7  8  1  0
  8  9  1  0
  8 10  1  0
 10 11  1  0
 11 12  1  0
 12 13  1  0
 13 14  1  0
 13 15  1  0
 15 16  1  0
 16 17  1  0
 16 18  1  0
 18 19  1  0
 19 20  1  0
 20 21  1  0
 21 22  1  0
 22 23  1  0
 23 24  1  0
 23 25  1  0
 23 26  1  0
 26 27  1  0
 27 28  1  0
 26 29  1  0
 29 30  1  0
 18 31  1  0
 31 32  1  0
 10 33  1  0
 33  5  1  0
 31 12  1  0
 29 20  1  0
M  END
> <Identifier>
3467.0

> <DILI>
0

$$$$

     RDKit          2D

 26 28  0  0  0  0  0  0  0  0999 V2000
    1.3655    1.0105    0.0000 O   0  0  0  0  0  0  0  0  0  0  0  0
    2.2578   -0.1953    0.0000 C   0  0  0  0  0  0  0  0  0  0  0  0
    3.7481   -0.0255    0.0000 O   0  0  0  0  0  0  0  0  0  0  0  0
    4.3462    1.3501    0.0000 C   0  0  0  0  0  0  0  0  0  0  0  0
    5.8366    1.5199    0.0000 C   0  0  0  0  0  0  0  0  0  0  0  0
    6.7289    0.3141    0.0000 O   0  0  0  0  0  0  0  0  0  0  0  0
    6.4347    2.8955    0.0000 C   0  0  0  0  0  0  0  0  0  0  0  0
    7.9251    3.0653    0.0000 O   0  0  0  0  0  0  0  0  0  0  0  0
    1.6597   -1.5709    0.0000 C   0  0  0  0  0  0  0  0  0  0  0  0
    2.5519   -2.7767    0.0000 C   0  0  0  0  0  0  0  0  0  0  0  0
    1.9538   -4.1523    0.0000 C   0  0  0  0  0  0  0  0  0  0  0  0
    0.4635   -4.3221    0.0000 C   0  0  0  0  0  0  0  0  0  0  0  0
   -0.4288   -3.1163    0.0000 C   0  0  0  0  0  0  0  0  0  0  0  0
    0.1693   -1.7407    0.0000 C   0  0  0  0  0  0  0  0  0  0  0  0
   -0.7229   -0.5350    0.0000 N   0  0  0  0  0  0  0  0  0  0  0  0
   -2.2133   -0.7048    0.0000 C   0  0  0  0  0  0  0  0  0  0  0  0
   -2.8114   -2.0804    0.0000 C   0  0  0  0  0  0  0  0  0  0  0  0
   -4.3018   -2.2502    0.0000 C   0  0  0  0  0  0  0  0  0  0  0  0
   -5.1940   -1.0444    0.0000 N   0  0  0  0  0  0  0  0  0  0  0  0
   -4.5959    0.3312    0.0000 C   0  0  0  0  0  0  0  0  0  0  0  0
   -5.4881    1.5370    0.0000 C   0  0  0  0  0  0  0  0  0  0  0  0
   -4.8900    2.9126    0.0000 C   0  0  0  0  0  0  0  0  0  0  0  0
   -5.7823    4.1183    0.0000 Cl  0  0  0  0  0  0  0  0  0  0  0  0
   -3.3997    3.0824    0.0000 C   0  0  0  0  0  0  0  0  0  0  0  0
   -2.5074    1.8766    0.0000 C   0  0  0  0  0  0  0  0  0  0  0  0
   -3.1055    0.5010    0.0000 C   0  0  0  0  0  0  0  0  0  0  0  0
  1  2  2  0
  2  3  1  0
  3  4  1  0
  4  5  1  0
  5  6  1  0
  5  7  1  0
  7  8  1  0
  2  9  1  0
  9 10  2  0
 10 11  1  0
 11 12  2  0
 12 13  1  0
 13 14  2  0
 14 15  1  0
 15 16  1  0
 16 17  2  0
 17 18  1  0
 18 19  2  0
 19 20  1  0
 20 21  2  0
 21 22  1  0
 22 23  1  0
 22 24  2  0
 24 25  1  0
 25 26  2  0
 14  9  1  0
 26 16  1  0
 26 20  1  0
M  END
> <Identifier>
3474.0

> <DILI>
1

$$$$

     RDKit          2D

 14 14  0  0  0  0  0  0  0  0999 V2000
   -3.1930   -2.9124    0.0000 C   0  0  0  0  0  0  0  0  0  0  0  0
   -1.9638   -2.0527    0.0000 O   0  0  0  0  0  0  0  0  0  0  0  0
   -2.0937   -0.5583    0.0000 C   0  0  0  0  0  0  0  0  0  0  0  0
   -3.4527    0.0764    0.0000 C   0  0  0  0  0  0  0  0  0  0  0  0
   -3.5826    1.5707    0.0000 C   0  0  0  0  0  0  0  0  0  0  0  0
   -2.3534    2.4304    0.0000 C   0  0  0  0  0  0  0  0  0  0  0  0
   -0.9943    1.7957    0.0000 C   0  0  0  0  0  0  0  0  0  0  0  0
   -0.8644    0.3013    0.0000 C   0  0  0  0  0  0  0  0  0  0  0  0
    0.4947   -0.3334    0.0000 O   0  0  0  0  0  0  0  0  0  0  0  0
    1.7239    0.5262    0.0000 C   0  0  0  0  0  0  0  0  0  0  0  0
    3.0830   -0.1085    0.0000 C   0  0  0  0  0  0  0  0  0  0  0  0
    3.2128   -1.6029    0.0000 O   0  0  0  0  0  0  0  0  0  0  0  0
    4.3122    0.7511    0.0000 C   0  0  0  0  0  0  0  0  0  0  0  0
    5.6713    0.1164    0.0000 O   0  0  0  0  0  0  0  0  0  0  0  0
  1  2  1  0
  2  3  1  0
  3  4  2  0
  4  5  1  0
  5  6  2  0
  6  7  1  0
  7  8  2  0
  8  9  1  0
  9 10  1  0
 10 11  1  0
 11 12  1  0
 11 13  1  0
 13 14  1  0
  8  3  1  0
M  END
> <Identifier>
3516.0

> <DILI>
0

$$$$

     RDKit          2D

 14 14  0  0  0  0  0  0  0  0999 V2000
   -5.8269   -0.3729    0.0000 N   0  0  0  0  0  0  0  0  0  0  0  0
   -4.4288    0.1704    0.0000 C   0  0  0  0  0  0  0  0  0  0  0  0
   -4.2002    1.6529    0.0000 N   0  0  0  0  0  0  0  0  0  0  0  0
   -3.2592   -0.7687    0.0000 N   0  0  0  0  0  0  0  0  0  0  0  0
   -1.8611   -0.2254    0.0000 C   0  0  0  0  0  0  0  0  0  0  0  0
   -0.6915   -1.1646    0.0000 C   0  0  0  0  0  0  0  0  0  0  0  0
    0.7067   -0.6213    0.0000 N   0  0  0  0  0  0  0  0  0  0  0  0
    0.7398    0.8783    0.0000 C   0  0  0  0  0  0  0  0  0  0  0  0
    1.8236    1.9153    0.0000 C   0  0  0  0  0  0  0  0  0  0  0  0
    3.3232    1.8822    0.0000 C   0  0  0  0  0  0  0  0  0  0  0  0
    4.3602    0.7984    0.0000 C   0  0  0  0  0  0  0  0  0  0  0  0
    4.3271   -0.7012    0.0000 C   0  0  0  0  0  0  0  0  0  0  0  0
    3.2433   -1.7382    0.0000 C   0  0  0  0  0  0  0  0  0  0  0  0
    1.7437   -1.7051    0.0000 C   0  0  0  0  0  0  0  0  0  0  0  0
  1  2  1  0
  2  3  1  0
  2  4  2  0
  4  5  1  0
  5  6  1  0
  6  7  1  0
  7  8  1  0
  8  9  1  0
  9 10  1  0
 10 11  1  0
 11 12  1  0
 12 13  1  0
 13 14  1  0
 14  7  1  0
M  END
> <Identifier>
3518.0

> <DILI>
0

$$$$

     RDKit          2D

 14 14  0  0  0  0  0  0  0  0999 V2000
   -6.7247    0.8280    0.0000 C   0  0  0  0  0  0  0  0  0  0  0  0
   -5.5488   -0.1033    0.0000 C   0  0  0  0  0  0  0  0  0  0  0  0
   -4.1543    0.4494    0.0000 C   0  0  0  0  0  0  0  0  0  0  0  0
   -2.9784   -0.4819    0.0000 C   0  0  0  0  0  0  0  0  0  0  0  0
   -1.5840    0.0709    0.0000 C   0  0  0  0  0  0  0  0  0  0  0  0
   -0.4081   -0.8604    0.0000 C   0  0  0  0  0  0  0  0  0  0  0  0
    0.9864   -0.3077    0.0000 C   0  0  0  0  0  0  0  0  0  0  0  0
    1.2049    1.1763    0.0000 C   0  0  0  0  0  0  0  0  0  0  0  0
    2.5994    1.7290    0.0000 C   0  0  0  0  0  0  0  0  0  0  0  0
    3.7753    0.7977    0.0000 C   0  0  0  0  0  0  0  0  0  0  0  0
    5.1697    1.3504    0.0000 O   0  0  0  0  0  0  0  0  0  0  0  0
    3.5567   -0.6863    0.0000 C   0  0  0  0  0  0  0  0  0  0  0  0
    2.1622   -1.2390    0.0000 C   0  0  0  0  0  0  0  0  0  0  0  0
    1.9437   -2.7230    0.0000 O   0  0  0  0  0  0  0  0  0  0  0  0
  1  2  1  0
  2  3  1  0
  3  4  1  0
  4  5  1  0
  5  6  1  0
  6  7  1  0
  7  8  2  0
  8  9  1  0
  9 10  2  0
 10 11  1  0
 10 12  1  0
 12 13  2  0
 13 14  1  0
 13  7  1  0
M  END
> <Identifier>
3610.0

> <DILI>
0

$$$$

     RDKit          2D

 17 18  0  0  0  0  0  0  0  0999 V2000
   -4.1967    1.4388    0.0000 N   0  0  0  0  0  0  0  0  0  0  0  0
   -2.8646    0.7491    0.0000 S   0  0  0  0  0  0  0  0  0  0  0  0
   -2.1749    2.0811    0.0000 O   0  0  0  0  0  0  0  0  0  0  0  0
   -3.5543   -0.5829    0.0000 O   0  0  0  0  0  0  0  0  0  0  0  0
   -1.5326    0.0594    0.0000 C   0  0  0  0  0  0  0  0  0  0  0  0
   -0.2693    0.8681    0.0000 C   0  0  0  0  0  0  0  0  0  0  0  0
    1.0627    0.1784    0.0000 C   0  0  0  0  0  0  0  0  0  0  0  0
    1.1315   -1.3200    0.0000 C   0  0  0  0  0  0  0  0  0  0  0  0
   -0.1319   -2.1288    0.0000 C   0  0  0  0  0  0  0  0  0  0  0  0
   -1.4639   -1.4390    0.0000 C   0  0  0  0  0  0  0  0  0  0  0  0
   -2.7272   -2.2478    0.0000 Cl  0  0  0  0  0  0  0  0  0  0  0  0
    2.4635   -2.0097    0.0000 N   0  0  0  0  0  0  0  0  0  0  0  0
    3.7268   -1.2010    0.0000 C   0  0  0  0  0  0  0  0  0  0  0  0
    3.6581    0.2974    0.0000 N   0  0  0  0  0  0  0  0  0  0  0  0
    2.3261    0.9871    0.0000 S   0  0  0  0  0  0  0  0  0  0  0  0
    1.3103    2.0908    0.0000 O   0  0  0  0  0  0  0  0  0  0  0  0
    3.2366    2.1791    0.0000 O   0  0  0  0  0  0  0  0  0  0  0  0
  1  2  1  0
  2  3  2  0
  2  4  2  0
  2  5  1  0
  5  6  2  0
  6  7  1  0
  7  8  2  0
  8  9  1  0
  9 10  2  0
 10 11  1  0
  8 12  1  0
 12 13  1  0
 13 14  1  0
 14 15  1  0
 15 16  2  0
 15 17  2  0
 10  5  1  0
 15  7  1  0
M  END
> <Identifier>
3639.0

> <DILI>
1

$$$$

     RDKit          2D

 26 28  0  0  0  0  0  0  0  0999 V2000
   -9.8176    1.4325    0.0000 O   0  0  0  0  0  0  0  0  0  0  0  0
   -8.8374    0.2970    0.0000 C   0  0  0  0  0  0  0  0  0  0  0  0
   -7.3640    0.5783    0.0000 C   0  0  0  0  0  0  0  0  0  0  0  0
   -6.3837   -0.5571    0.0000 O   0  0  0  0  0  0  0  0  0  0  0  0
   -4.9103   -0.2759    0.0000 C   0  0  0  0  0  0  0  0  0  0  0  0
   -3.9301   -1.4113    0.0000 C   0  0  0  0  0  0  0  0  0  0  0  0
   -2.4567   -1.1301    0.0000 N   0  0  0  0  0  0  0  0  0  0  0  0
   -1.9635    0.2865    0.0000 C   0  0  0  0  0  0  0  0  0  0  0  0
   -0.4901    0.5677    0.0000 C   0  0  0  0  0  0  0  0  0  0  0  0
    0.4901   -0.5677    0.0000 N   0  0  0  0  0  0  0  0  0  0  0  0
    1.9635   -0.2865    0.0000 C   0  0  0  0  0  0  0  0  0  0  0  0
    2.9438   -1.4219    0.0000 C   0  0  0  0  0  0  0  0  0  0  0  0
    2.4506   -2.8385    0.0000 C   0  0  0  0  0  0  0  0  0  0  0  0
    3.4308   -3.9739    0.0000 C   0  0  0  0  0  0  0  0  0  0  0  0
    4.9042   -3.6927    0.0000 C   0  0  0  0  0  0  0  0  0  0  0  0
    5.3974   -2.2761    0.0000 C   0  0  0  0  0  0  0  0  0  0  0  0
    4.4172   -1.1407    0.0000 C   0  0  0  0  0  0  0  0  0  0  0  0
    2.4567    1.1301    0.0000 C   0  0  0  0  0  0  0  0  0  0  0  0
    3.9301    1.4113    0.0000 C   0  0  0  0  0  0  0  0  0  0  0  0
    4.4233    2.8279    0.0000 C   0  0  0  0  0  0  0  0  0  0  0  0
    3.4430    3.9633    0.0000 C   0  0  0  0  0  0  0  0  0  0  0  0
    3.9362    5.3800    0.0000 Cl  0  0  0  0  0  0  0  0  0  0  0  0
    1.9696    3.6821    0.0000 C   0  0  0  0  0  0  0  0  0  0  0  0
    1.4765    2.2655    0.0000 C   0  0  0  0  0  0  0  0  0  0  0  0
   -0.0030   -1.9843    0.0000 C   0  0  0  0  0  0  0  0  0  0  0  0
   -1.4765   -2.2655    0.0000 C   0  0  0  0  0  0  0  0  0  0  0  0
  1  2  1  0
  2  3  1  0
  3  4  1  0
  4  5  1  0
  5  6  1  0
  6  7  1  0
  7  8  1  0
  8  9  1  0
  9 10  1  0
 10 11  1  0
 11 12  1  0
 12 13  2  0
 13 14  1  0
 14 15  2  0
 15 16  1  0
 16 17  2  0
 11 18  1  0
 18 19  2  0
 19 20  1  0
 20 21  2  0
 21 22  1  0
 21 23  1  0
 23 24  2  0
 10 25  1  0
 25 26  1  0
 26  7  1  0
 17 12  1  0
 24 18  1  0
M  END
> <Identifier>
3658.0

> <DILI>
0

$$$$

     RDKit          2D

 10 10  0  0  0  0  0  0  0  0999 V2000
   -4.6450    0.6199    0.0000 N   0  0  0  0  0  0  0  0  0  0  0  0
   -3.5176   -0.3695    0.0000 N   0  0  0  0  0  0  0  0  0  0  0  0
   -2.0970    0.1121    0.0000 C   0  0  0  0  0  0  0  0  0  0  0  0
   -0.9696   -0.8774    0.0000 C   0  0  0  0  0  0  0  0  0  0  0  0
    0.4510   -0.3958    0.0000 C   0  0  0  0  0  0  0  0  0  0  0  0
    0.7442    1.0753    0.0000 C   0  0  0  0  0  0  0  0  0  0  0  0
    2.1647    1.5569    0.0000 C   0  0  0  0  0  0  0  0  0  0  0  0
    3.2921    0.5674    0.0000 C   0  0  0  0  0  0  0  0  0  0  0  0
    2.9989   -0.9036    0.0000 C   0  0  0  0  0  0  0  0  0  0  0  0
    1.5783   -1.3852    0.0000 C   0  0  0  0  0  0  0  0  0  0  0  0
  1  2  1  0
  2  3  1  0
  3  4  1  0
  4  5  1  0
  5  6  2  0
  6  7  1  0
  7  8  2  0
  8  9  1  0
  9 10  2  0
 10  5  1  0
M  END
> <Identifier>
3675.0

> <DILI>
0

$$$$

     RDKit          2D

 17 17  0  0  0  0  0  0  0  0999 V2000
   -5.7991   -0.5402    0.0000 C   0  0  0  0  0  0  0  0  0  0  0  0
   -4.4874   -1.2679    0.0000 C   0  0  0  0  0  0  0  0  0  0  0  0
   -3.2014   -0.4959    0.0000 N   0  0  0  0  0  0  0  0  0  0  0  0
   -3.2270    1.0039    0.0000 C   0  0  0  0  0  0  0  0  0  0  0  0
   -4.5386    1.7316    0.0000 C   0  0  0  0  0  0  0  0  0  0  0  0
   -1.8897   -1.2236    0.0000 C   0  0  0  0  0  0  0  0  0  0  0  0
   -0.6037   -0.4515    0.0000 C   0  0  0  0  0  0  0  0  0  0  0  0
   -0.6293    1.0482    0.0000 O   0  0  0  0  0  0  0  0  0  0  0  0
    0.7079   -1.1793    0.0000 N   0  0  0  0  0  0  0  0  0  0  0  0
    1.9940   -0.4072    0.0000 C   0  0  0  0  0  0  0  0  0  0  0  0
    1.9684    1.0926    0.0000 C   0  0  0  0  0  0  0  0  0  0  0  0
    0.6568    1.8203    0.0000 C   0  0  0  0  0  0  0  0  0  0  0  0
    3.2545    1.8646    0.0000 C   0  0  0  0  0  0  0  0  0  0  0  0
    4.5661    1.1369    0.0000 C   0  0  0  0  0  0  0  0  0  0  0  0
    4.5917   -0.3629    0.0000 C   0  0  0  0  0  0  0  0  0  0  0  0
    3.3056   -1.1349    0.0000 C   0  0  0  0  0  0  0  0  0  0  0  0
    3.3312   -2.6347    0.0000 C   0  0  0  0  0  0  0  0  0  0  0  0
  1  2  1  0
  2  3  1  0
  3  4  1  0
  4  5  1  0
  3  6  1  0
  6  7  1  0
  7  8  2  0
  7  9  1  0
  9 10  1  0
 10 11  2  0
 11 12  1  0
 11 13  1  0
 13 14  2  0
 14 15  1  0
 15 16  2  0
 16 17  1  0
 16 10  1  0
M  END
> <Identifier>
3676.0

> <DILI>
0

$$$$

     RDKit          2D

 14 15  0  0  0  0  0  0  0  0999 V2000
    3.3081   -2.1286    0.0000 N   0  0  0  0  0  0  0  0  0  0  0  0
    2.4463   -0.9009    0.0000 C   0  0  0  0  0  0  0  0  0  0  0  0
    0.9521   -1.0334    0.0000 C   0  0  0  0  0  0  0  0  0  0  0  0
    0.0903    0.1943    0.0000 C   0  0  0  0  0  0  0  0  0  0  0  0
   -1.4038    0.0618    0.0000 C   0  0  0  0  0  0  0  0  0  0  0  0
   -2.2656    1.2895    0.0000 C   0  0  0  0  0  0  0  0  0  0  0  0
   -3.7598    1.1570    0.0000 C   0  0  0  0  0  0  0  0  0  0  0  0
   -4.3921   -0.2032    0.0000 N   0  0  0  0  0  0  0  0  0  0  0  0
   -3.5303   -1.4309    0.0000 C   0  0  0  0  0  0  0  0  0  0  0  0
   -2.0361   -1.2984    0.0000 C   0  0  0  0  0  0  0  0  0  0  0  0
    0.7227    1.5545    0.0000 C   0  0  0  0  0  0  0  0  0  0  0  0
    2.2168    1.6870    0.0000 N   0  0  0  0  0  0  0  0  0  0  0  0
    3.0786    0.4593    0.0000 C   0  0  0  0  0  0  0  0  0  0  0  0
    4.5727    0.5918    0.0000 O   0  0  0  0  0  0  0  0  0  0  0  0
  1  2  1  0
  2  3  2  0
  3  4  1  0
  4  5  1  0
  5  6  2  0
  6  7  1  0
  7  8  2  0
  8  9  1  0
  9 10  2  0
  4 11  2  0
 11 12  1  0
 12 13  1  0
 13 14  2  0
 13  2  1  0
 10  5  1  0
M  END
> <Identifier>
3698.0

> <DILI>
1

$$$$

     RDKit          2D

 25 27  0  0  0  0  0  0  0  0999 V2000
   -6.8832    1.8644    0.0000 C   0  0  0  0  0  0  0  0  0  0  0  0
   -6.0516    0.6160    0.0000 O   0  0  0  0  0  0  0  0  0  0  0  0
   -4.5547    0.7119    0.0000 C   0  0  0  0  0  0  0  0  0  0  0  0
   -3.8893    2.0563    0.0000 C   0  0  0  0  0  0  0  0  0  0  0  0
   -2.3924    2.1522    0.0000 C   0  0  0  0  0  0  0  0  0  0  0  0
   -1.5608    0.9038    0.0000 C   0  0  0  0  0  0  0  0  0  0  0  0
   -2.2262   -0.4405    0.0000 C   0  0  0  0  0  0  0  0  0  0  0  0
   -3.7231   -0.5365    0.0000 C   0  0  0  0  0  0  0  0  0  0  0  0
   -1.1532   -1.4888    0.0000 C   0  0  0  0  0  0  0  0  0  0  0  0
   -1.3706   -2.9729    0.0000 C   0  0  0  0  0  0  0  0  0  0  0  0
   -0.1940   -3.9033    0.0000 C   0  0  0  0  0  0  0  0  0  0  0  0
    1.2000   -3.3494    0.0000 O   0  0  0  0  0  0  0  0  0  0  0  0
   -0.4114   -5.3874    0.0000 O   0  0  0  0  0  0  0  0  0  0  0  0
    0.1752   -0.7923    0.0000 C   0  0  0  0  0  0  0  0  0  0  0  0
    1.5196   -1.4576    0.0000 C   0  0  0  0  0  0  0  0  0  0  0  0
   -0.0766    0.6864    0.0000 N   0  0  0  0  0  0  0  0  0  0  0  0
    0.9716    1.7594    0.0000 C   0  0  0  0  0  0  0  0  0  0  0  0
    0.5665    3.2037    0.0000 O   0  0  0  0  0  0  0  0  0  0  0  0
    2.4249    1.3881    0.0000 C   0  0  0  0  0  0  0  0  0  0  0  0
    2.8300   -0.0562    0.0000 C   0  0  0  0  0  0  0  0  0  0  0  0
    4.2833   -0.4275    0.0000 C   0  0  0  0  0  0  0  0  0  0  0  0
    5.3315    0.6454    0.0000 C   0  0  0  0  0  0  0  0  0  0  0  0
    6.7848    0.2741    0.0000 Cl  0  0  0  0  0  0  0  0  0  0  0  0
    4.9264    2.0897    0.0000 C   0  0  0  0  0  0  0  0  0  0  0  0
    3.4731    2.4610    0.0000 C   0  0  0  0  0  0  0  0  0  0  0  0
  1  2  1  0
  2  3  1  0
  3  4  2  0
  4  5  1  0
  5  6  2  0
  6  7  1  0
  7  8  2  0
  7  9  1  0
  9 10  1  0
 10 11  1  0
 11 12  2  0
 11 13  1  0
  9 14  2  0
 14 15  1  0
 14 16  1  0
 16 17  1  0
 17 18  2  0
 17 19  1  0
 19 20  2  0
 20 21  1  0
 21 22  2  0
 22 23  1  0
 22 24  1  0
 24 25  2  0
  8  3  1  0
 25 19  1  0
 16  6  1  0
M  END
> <Identifier>
3715.0

> <DILI>
1

$$$$

     RDKit          2D

 62 63  0  0  0  0  0  0  0  0999 V2000
   -3.8971   -3.5565    0.0000 C   0  0  0  0  0  0  0  0  0  0  0  0
   -2.5981   -2.8065    0.0000 C   0  0  0  0  0  0  0  0  0  0  0  0
   -1.2990   -3.5565    0.0000 O   0  0  0  0  0  0  0  0  0  0  0  0
   -2.5981   -1.3065    0.0000 N   0  0  0  0  0  0  0  0  0  0  0  0
   -1.2990   -0.5565    0.0000 C   0  0  0  0  0  0  0  0  0  0  0  0
   -0.0000   -1.3065    0.0000 C   0  0  0  0  0  0  0  0  0  0  0  0
   -0.0000   -2.8065    0.0000 O   0  0  0  0  0  0  0  0  0  0  0  0
    1.2990   -0.5565    0.0000 C   0  0  0  0  0  0  0  0  0  0  0  0
    2.5981   -1.3065    0.0000 N   0  0  0  0  0  0  0  0  0  0  0  0
    2.5981   -2.8065    0.0000 C   0  0  0  0  0  0  0  0  0  0  0  0
    1.2990   -3.5565    0.0000 C   0  0  0  0  0  0  0  0  0  0  0  0
    3.8971   -3.5565    0.0000 O   0  0  0  0  0  0  0  0  0  0  0  0
    3.8971   -0.5565    0.0000 C   0  0  0  0  0  0  0  0  0  0  0  0
    5.1962   -1.3065    0.0000 C   0  0  0  0  0  0  0  0  0  0  0  0
    5.1962   -2.8065    0.0000 I   0  0  0  0  0  0  0  0  0  0  0  0
    6.4952   -0.5565    0.0000 C   0  0  0  0  0  0  0  0  0  0  0  0
    7.7942   -1.3065    0.0000 C   0  0  0  0  0  0  0  0  0  0  0  0
    9.0933   -0.5565    0.0000 O   0  0  0  0  0  0  0  0  0  0  0  0
    7.7942   -2.8065    0.0000 N   0  0  0  0  0  0  0  0  0  0  0  0
    9.0933   -3.5565    0.0000 C   0  0  0  0  0  0  0  0  0  0  0  0
    9.0933   -5.0565    0.0000 C   0  0  0  0  0  0  0  0  0  0  0  0
    7.7942   -5.8065    0.0000 O   0  0  0  0  0  0  0  0  0  0  0  0
   10.3923   -5.8065    0.0000 C   0  0  0  0  0  0  0  0  0  0  0  0
   10.3923   -7.3065    0.0000 O   0  0  0  0  0  0  0  0  0  0  0  0
    6.4952    0.9435    0.0000 C   0  0  0  0  0  0  0  0  0  0  0  0
    7.7942    1.6935    0.0000 I   0  0  0  0  0  0  0  0  0  0  0  0
    5.1962    1.6935    0.0000 C   0  0  0  0  0  0  0  0  0  0  0  0
    5.1962    3.1935    0.0000 C   0  0  0  0  0  0  0  0  0  0  0  0
    3.8971    3.9435    0.0000 O   0  0  0  0  0  0  0  0  0  0  0  0
    6.4952    3.9435    0.0000 N   0  0  0  0  0  0  0  0  0  0  0  0
    6.4952    5.4435    0.0000 C   0  0  0  0  0  0  0  0  0  0  0  0
    7.7942    6.1935    0.0000 C   0  0  0  0  0  0  0  0  0  0  0  0
    9.0933    5.4435    0.0000 O   0  0  0  0  0  0  0  0  0  0  0  0
    7.7942    7.6935    0.0000 C   0  0  0  0  0  0  0  0  0  0  0  0
    9.0933    8.4435    0.0000 O   0  0  0  0  0  0  0  0  0  0  0  0
    3.8971    0.9435    0.0000 C   0  0  0  0  0  0  0  0  0  0  0  0
    2.5981    1.6935    0.0000 I   0  0  0  0  0  0  0  0  0  0  0  0
   -3.8971   -0.5565    0.0000 C   0  0  0  0  0  0  0  0  0  0  0  0
   -3.8971    0.9435    0.0000 C   0  0  0  0  0  0  0  0  0  0  0  0
   -2.5981    1.6935    0.0000 I   0  0  0  0  0  0  0  0  0  0  0  0
   -5.1962    1.6935    0.0000 C   0  0  0  0  0  0  0  0  0  0  0  0
   -5.1962    3.1935    0.0000 C   0  0  0  0  0  0  0  0  0  0  0  0
   -3.8971    3.9435    0.0000 O   0  0  0  0  0  0  0  0  0  0  0  0
   -6.4952    3.9435    0.0000 N   0  0  0  0  0  0  0  0  0  0  0  0
   -6.4952    5.4435    0.0000 C   0  0  0  0  0  0  0  0  0  0  0  0
   -7.7942    6.1935    0.0000 C   0  0  0  0  0  0  0  0  0  0  0  0
   -9.0933    5.4435    0.0000 O   0  0  0  0  0  0  0  0  0  0  0  0
   -7.7942    7.6935    0.0000 C   0  0  0  0  0  0  0  0  0  0  0  0
   -9.0933    8.4435    0.0000 O   0  0  0  0  0  0  0  0  0  0  0  0
   -6.4952    0.9435    0.0000 C   0  0  0  0  0  0  0  0  0  0  0  0
   -7.7942    1.6935    0.0000 I   0  0  0  0  0  0  0  0  0  0  0  0
   -6.4952   -0.5565    0.0000 C   0  0  0  0  0  0  0  0  0  0  0  0
   -7.7942   -1.3065    0.0000 C   0  0  0  0  0  0  0  0  0  0  0  0
   -9.0933   -0.5565    0.0000 O   0  0  0  0  0  0  0  0  0  0  0  0
   -7.7942   -2.8065    0.0000 N   0  0  0  0  0  0  0  0  0  0  0  0
   -9.0933   -3.5565    0.0000 C   0  0  0  0  0  0  0  0  0  0  0  0
   -9.0933   -5.0565    0.0000 C   0  0  0  0  0  0  0  0  0  0  0  0
   -7.7942   -5.8065    0.0000 O   0  0  0  0  0  0  0  0  0  0  0  0
  -10.3923   -5.8065    0.0000 C   0  0  0  0  0  0  0  0  0  0  0  0
  -10.3923   -7.3065    0.0000 O   0  0  0  0  0  0  0  0  0  0  0  0
   -5.1962   -1.3065    0.0000 C   0  0  0  0  0  0  0  0  0  0  0  0
   -5.1962   -2.8065    0.0000 I   0  0  0  0  0  0  0  0  0  0  0  0
  1  2  1  0
  2  3  2  0
  2  4  1  0
  4  5  1  0
  5  6  1  0
  6  7  1  0
  6  8  1  0
  8  9  1  0
  9 10  1  0
 10 11  1  0
 10 12  2  0
  9 13  1  0
 13 14  2  0
 14 15  1  0
 14 16  1  0
 16 17  1  0
 17 18  2  0
 17 19  1  0
 19 20  1  0
 20 21  1  0
 21 22  1  0
 21 23  1  0
 23 24  1  0
 16 25  2  0
 25 26  1  0
 25 27  1  0
 27 28  1  0
 28 29  2  0
 28 30  1  0
 30 31  1  0
 31 32  1  0
 32 33  1  0
 32 34  1  0
 34 35  1  0
 27 36  2  0
 36 37  1  0
  4 38  1  0
 38 39  2  0
 39 40  1  0
 39 41  1  0
 41 42  1  0
 42 43  2  0
 42 44  1  0
 44 45  1  0
 45 46  1  0
 46 47  1  0
 46 48  1  0
 48 49  1  0
 41 50  2  0
 50 51  1  0
 50 52  1  0
 52 53  1  0
 53 54  2  0
 53 55  1  0
 55 56  1  0
 56 57  1  0
 57 58  1  0
 57 59  1  0
 59 60  1  0
 52 61  2  0
 61 62  1  0
 36 13  1  0
 61 38  1  0
M  END
> <Identifier>
3724.0

> <DILI>
0

$$$$

     RDKit          2D

 13 13  0  0  0  0  0  0  0  0999 V2000
   -5.1640   -0.2314    0.0000 C   0  0  0  0  0  0  0  0  0  0  0  0
   -3.7825    0.3530    0.0000 C   0  0  0  0  0  0  0  0  0  0  0  0
   -3.5978    1.8416    0.0000 C   0  0  0  0  0  0  0  0  0  0  0  0
   -2.5857   -0.5512    0.0000 N   0  0  0  0  0  0  0  0  0  0  0  0
   -1.2042    0.0331    0.0000 N   0  0  0  0  0  0  0  0  0  0  0  0
   -0.0074   -0.8711    0.0000 C   0  0  0  0  0  0  0  0  0  0  0  0
   -0.1920   -2.3597    0.0000 O   0  0  0  0  0  0  0  0  0  0  0  0
    1.3741   -0.2867    0.0000 C   0  0  0  0  0  0  0  0  0  0  0  0
    1.5588    1.2019    0.0000 C   0  0  0  0  0  0  0  0  0  0  0  0
    2.9403    1.7862    0.0000 C   0  0  0  0  0  0  0  0  0  0  0  0
    4.1371    0.8820    0.0000 N   0  0  0  0  0  0  0  0  0  0  0  0
    3.9524   -0.6066    0.0000 C   0  0  0  0  0  0  0  0  0  0  0  0
    2.5709   -1.1910    0.0000 C   0  0  0  0  0  0  0  0  0  0  0  0
  1  2  1  0
  2  3  1  0
  2  4  1  0
  4  5  1  0
  5  6  1  0
  6  7  2  0
  6  8  1  0
  8  9  2  0
  9 10  1  0
 10 11  2  0
 11 12  1  0
 12 13  2  0
 13  8  1  0
M  END
> <Identifier>
3748.0

> <DILI>
1

$$$$

     RDKit          2D

 17 18  0  0  0  0  0  0  0  0999 V2000
   -6.1099   -2.0241    0.0000 C   0  0  0  0  0  0  0  0  0  0  0  0
   -5.1630   -0.8607    0.0000 C   0  0  0  0  0  0  0  0  0  0  0  0
   -3.6653   -0.9429    0.0000 C   0  0  0  0  0  0  0  0  0  0  0  0
   -3.1243    0.4562    0.0000 C   0  0  0  0  0  0  0  0  0  0  0  0
   -1.6745    0.8409    0.0000 C   0  0  0  0  0  0  0  0  0  0  0  0
   -1.2827    2.2888    0.0000 O   0  0  0  0  0  0  0  0  0  0  0  0
   -0.6164   -0.2224    0.0000 N   0  0  0  0  0  0  0  0  0  0  0  0
    0.8334    0.1623    0.0000 N   0  0  0  0  0  0  0  0  0  0  0  0
    1.8915   -0.9009    0.0000 C   0  0  0  0  0  0  0  0  0  0  0  0
    3.3413   -0.5162    0.0000 C   0  0  0  0  0  0  0  0  0  0  0  0
    4.3994   -1.5795    0.0000 C   0  0  0  0  0  0  0  0  0  0  0  0
    5.8492   -1.1948    0.0000 C   0  0  0  0  0  0  0  0  0  0  0  0
    6.2410    0.2531    0.0000 C   0  0  0  0  0  0  0  0  0  0  0  0
    5.1829    1.3164    0.0000 C   0  0  0  0  0  0  0  0  0  0  0  0
    3.7331    0.9317    0.0000 C   0  0  0  0  0  0  0  0  0  0  0  0
   -4.2877    1.4030    0.0000 N   0  0  0  0  0  0  0  0  0  0  0  0
   -5.5477    0.5891    0.0000 O   0  0  0  0  0  0  0  0  0  0  0  0
  1  2  1  0
  2  3  2  0
  3  4  1  0
  4  5  1  0
  5  6  2  0
  5  7  1  0
  7  8  1  0
  8  9  1  0
  9 10  1  0
 10 11  2  0
 11 12  1  0
 12 13  2  0
 13 14  1  0
 14 15  2  0
  4 16  2  0
 16 17  1  0
 17  2  1  0
 15 10  1  0
M  END
> <Identifier>
3759.0

> <DILI>
1

$$$$

     RDKit          2D

 15 15  0  0  0  0  0  0  0  0999 V2000
   -5.8757   -0.2142    0.0000 C   0  0  0  0  0  0  0  0  0  0  0  0
   -4.4928    0.3668    0.0000 C   0  0  0  0  0  0  0  0  0  0  0  0
   -4.3045    1.8550    0.0000 C   0  0  0  0  0  0  0  0  0  0  0  0
   -3.2982   -0.5403    0.0000 N   0  0  0  0  0  0  0  0  0  0  0  0
   -1.9153    0.0407    0.0000 C   0  0  0  0  0  0  0  0  0  0  0  0
   -0.7207   -0.8664    0.0000 C   0  0  0  0  0  0  0  0  0  0  0  0
   -0.9090   -2.3545    0.0000 O   0  0  0  0  0  0  0  0  0  0  0  0
    0.6622   -0.2854    0.0000 C   0  0  0  0  0  0  0  0  0  0  0  0
    0.8505    1.2028    0.0000 C   0  0  0  0  0  0  0  0  0  0  0  0
    2.2334    1.7838    0.0000 C   0  0  0  0  0  0  0  0  0  0  0  0
    3.4280    0.8766    0.0000 C   0  0  0  0  0  0  0  0  0  0  0  0
    4.8110    1.4577    0.0000 O   0  0  0  0  0  0  0  0  0  0  0  0
    3.2398   -0.6115    0.0000 C   0  0  0  0  0  0  0  0  0  0  0  0
    4.4344   -1.5186    0.0000 O   0  0  0  0  0  0  0  0  0  0  0  0
    1.8569   -1.1925    0.0000 C   0  0  0  0  0  0  0  0  0  0  0  0
  1  2  1  0
  2  3  1  0
  2  4  1  0
  4  5  1  0
  5  6  1  0
  6  7  1  0
  6  8  1  0
  8  9  2  0
  9 10  1  0
 10 11  2  0
 11 12  1  0
 11 13  1  0
 13 14  1  0
 13 15  2  0
 15  8  1  0
M  END
> <Identifier>
3779.0

> <DILI>
0

$$$$

     RDKit          2D

 22 23  0  0  0  0  0  0  0  0999 V2000
    0.0503    1.8453    0.0000 C   0  0  0  0  0  0  0  0  0  0  0  0
    0.9291    0.6297    0.0000 C   0  0  0  0  0  0  0  0  0  0  0  0
    2.4213    0.7831    0.0000 C   0  0  0  0  0  0  0  0  0  0  0  0
    3.3001   -0.4325    0.0000 O   0  0  0  0  0  0  0  0  0  0  0  0
    4.7923   -0.2791    0.0000 C   0  0  0  0  0  0  0  0  0  0  0  0
    5.6712   -1.4947    0.0000 C   0  0  0  0  0  0  0  0  0  0  0  0
    7.1633   -1.3414    0.0000 C   0  0  0  0  0  0  0  0  0  0  0  0
    7.7766    0.0276    0.0000 C   0  0  0  0  0  0  0  0  0  0  0  0
    6.8977    1.2431    0.0000 C   0  0  0  0  0  0  0  0  0  0  0  0
    5.4055    1.0898    0.0000 C   0  0  0  0  0  0  0  0  0  0  0  0
    0.3159   -0.7392    0.0000 N   0  0  0  0  0  0  0  0  0  0  0  0
   -1.1763   -0.8925    0.0000 C   0  0  0  0  0  0  0  0  0  0  0  0
   -1.7895   -2.2615    0.0000 C   0  0  0  0  0  0  0  0  0  0  0  0
   -2.0552    0.3230    0.0000 C   0  0  0  0  0  0  0  0  0  0  0  0
   -1.4419    1.6919    0.0000 O   0  0  0  0  0  0  0  0  0  0  0  0
   -3.5473    0.1697    0.0000 C   0  0  0  0  0  0  0  0  0  0  0  0
   -4.4262    1.3852    0.0000 C   0  0  0  0  0  0  0  0  0  0  0  0
   -5.9183    1.2319    0.0000 C   0  0  0  0  0  0  0  0  0  0  0  0
   -6.5316   -0.1370    0.0000 C   0  0  0  0  0  0  0  0  0  0  0  0
   -8.0237   -0.2904    0.0000 O   0  0  0  0  0  0  0  0  0  0  0  0
   -5.6527   -1.3526    0.0000 C   0  0  0  0  0  0  0  0  0  0  0  0
   -4.1606   -1.1992    0.0000 C   0  0  0  0  0  0  0  0  0  0  0  0
  1  2  1  0
  2  3  1  0
  3  4  1  0
  4  5  1  0
  5  6  2  0
  6  7  1  0
  7  8  2  0
  8  9  1  0
  9 10  2  0
  2 11  1  0
 11 12  1  0
 12 13  1  0
 12 14  1  0
 14 15  1  0
 14 16  1  0
 16 17  2  0
 17 18  1  0
 18 19  2  0
 19 20  1  0
 19 21  1  0
 21 22  2  0
 10  5  1  0
 22 16  1  0
M  END
> <Identifier>
3783.0

> <DILI>
0

$$$$

     RDKit          2D

 16 17  0  0  0  0  0  0  0  0999 V2000
   -1.5859   -2.5640    0.0000 C   0  0  0  0  0  0  0  0  0  0  0  0
   -0.4172   -1.6236    0.0000 N   0  0  0  0  0  0  0  0  0  0  0  0
   -0.6473   -0.1414    0.0000 C   0  0  0  0  0  0  0  0  0  0  0  0
    0.8524   -0.1722    0.0000 C   0  0  0  0  0  0  0  0  0  0  0  0
    1.5755   -1.4864    0.0000 C   0  0  0  0  0  0  0  0  0  0  0  0
    3.0752   -1.5172    0.0000 C   0  0  0  0  0  0  0  0  0  0  0  0
    3.8518   -0.2339    0.0000 C   0  0  0  0  0  0  0  0  0  0  0  0
    3.1287    1.0803    0.0000 C   0  0  0  0  0  0  0  0  0  0  0  0
    1.6290    1.1111    0.0000 C   0  0  0  0  0  0  0  0  0  0  0  0
    0.9058    2.4253    0.0000 Cl  0  0  0  0  0  0  0  0  0  0  0  0
   -0.3565    1.3302    0.0000 C   0  0  0  0  0  0  0  0  0  0  0  0
   -1.4855    2.3178    0.0000 C   0  0  0  0  0  0  0  0  0  0  0  0
   -2.9053    1.8339    0.0000 C   0  0  0  0  0  0  0  0  0  0  0  0
   -3.1960    0.3623    0.0000 C   0  0  0  0  0  0  0  0  0  0  0  0
   -2.0671   -0.6253    0.0000 C   0  0  0  0  0  0  0  0  0  0  0  0
   -2.3578   -2.0968    0.0000 O   0  0  0  0  0  0  0  0  0  0  0  0
  1  2  1  0
  2  3  1  0
  3  4  1  0
  4  5  2  0
  5  6  1  0
  6  7  2  0
  7  8  1  0
  8  9  2  0
  9 10  1  0
  3 11  1  0
 11 12  1  0
 12 13  1  0
 13 14  1  0
 14 15  1  0
 15 16  2  0
 15  3  1  0
  9  4  1  0
M  END
> <Identifier>
3821.0

> <DILI>
0

$$$$

     RDKit          2D

 19 20  0  0  0  0  0  0  0  0999 V2000
   -4.4828   -0.7688    0.0000 C   0  0  0  0  0  0  0  0  0  0  0  0
   -2.9833   -0.8091    0.0000 C   0  0  0  0  0  0  0  0  0  0  0  0
   -2.2684   -2.1278    0.0000 C   0  0  0  0  0  0  0  0  0  0  0  0
   -0.7690   -2.1680    0.0000 O   0  0  0  0  0  0  0  0  0  0  0  0
   -3.0530   -3.4062    0.0000 O   0  0  0  0  0  0  0  0  0  0  0  0
   -2.1987    0.4694    0.0000 C   0  0  0  0  0  0  0  0  0  0  0  0
   -2.9136    1.7881    0.0000 C   0  0  0  0  0  0  0  0  0  0  0  0
   -2.1290    3.0665    0.0000 C   0  0  0  0  0  0  0  0  0  0  0  0
   -0.6296    3.0263    0.0000 C   0  0  0  0  0  0  0  0  0  0  0  0
    0.0853    1.7076    0.0000 C   0  0  0  0  0  0  0  0  0  0  0  0
    1.5848    1.6673    0.0000 C   0  0  0  0  0  0  0  0  0  0  0  0
    2.3693    2.9458    0.0000 O   0  0  0  0  0  0  0  0  0  0  0  0
    2.2997    0.3487    0.0000 C   0  0  0  0  0  0  0  0  0  0  0  0
    1.5151   -0.9298    0.0000 C   0  0  0  0  0  0  0  0  0  0  0  0
    2.2300   -2.2485    0.0000 C   0  0  0  0  0  0  0  0  0  0  0  0
    3.7294   -2.2887    0.0000 C   0  0  0  0  0  0  0  0  0  0  0  0
    4.5140   -1.0103    0.0000 C   0  0  0  0  0  0  0  0  0  0  0  0
    3.7991    0.3084    0.0000 C   0  0  0  0  0  0  0  0  0  0  0  0
   -0.6993    0.4291    0.0000 C   0  0  0  0  0  0  0  0  0  0  0  0
  1  2  1  0
  2  3  1  0
  3  4  2  0
  3  5  1  0
  2  6  1  0
  6  7  2  0
  7  8  1  0
  8  9  2  0
  9 10  1  0
 10 11  1  0
 11 12  2  0
 11 13  1  0
 13 14  2  0
 14 15  1  0
 15 16  2  0
 16 17  1  0
 17 18  2  0
 10 19  2  0
 19  6  1  0
 18 13  1  0
M  END
> <Identifier>
3825.0

> <DILI>
1

$$$$

     RDKit          2D

 19 21  0  0  0  0  0  0  0  0999 V2000
    1.4861    2.5090    0.0000 O   0  0  0  0  0  0  0  0  0  0  0  0
    1.5457    1.0102    0.0000 C   0  0  0  0  0  0  0  0  0  0  0  0
    2.8735    0.3124    0.0000 C   0  0  0  0  0  0  0  0  0  0  0  0
    2.9331   -1.1864    0.0000 C   0  0  0  0  0  0  0  0  0  0  0  0
    4.2609   -1.8842    0.0000 C   0  0  0  0  0  0  0  0  0  0  0  0
    5.5291   -1.0832    0.0000 C   0  0  0  0  0  0  0  0  0  0  0  0
    5.4695    0.4156    0.0000 C   0  0  0  0  0  0  0  0  0  0  0  0
    4.1417    1.1134    0.0000 C   0  0  0  0  0  0  0  0  0  0  0  0
    0.2775    0.2092    0.0000 C   0  0  0  0  0  0  0  0  0  0  0  0
    0.1801   -1.2877    0.0000 C   0  0  0  0  0  0  0  0  0  0  0  0
   -1.2736   -1.6576    0.0000 C   0  0  0  0  0  0  0  0  0  0  0  0
   -2.0746   -0.3894    0.0000 C   0  0  0  0  0  0  0  0  0  0  0  0
   -1.1160    0.7643    0.0000 N   0  0  0  0  0  0  0  0  0  0  0  0
   -1.9170    2.0326    0.0000 C   0  0  0  0  0  0  0  0  0  0  0  0
   -3.3707    1.6626    0.0000 C   0  0  0  0  0  0  0  0  0  0  0  0
   -3.4681    0.1658    0.0000 C   0  0  0  0  0  0  0  0  0  0  0  0
   -4.7363   -0.6352    0.0000 C   0  0  0  0  0  0  0  0  0  0  0  0
   -4.6767   -2.1340    0.0000 O   0  0  0  0  0  0  0  0  0  0  0  0
   -6.0641    0.0626    0.0000 O   0  0  0  0  0  0  0  0  0  0  0  0
  1  2  2  0
  2  3  1  0
  3  4  2  0
  4  5  1  0
  5  6  2  0
  6  7  1  0
  7  8  2  0
  2  9  1  0
  9 10  2  0
 10 11  1  0
 11 12  2  0
 12 13  1  0
 13 14  1  0
 14 15  1  0
 15 16  1  0
 16 17  1  0
 17 18  2  0
 17 19  1  0
  8  3  1  0
 13  9  1  0
 16 12  1  0
M  END
> <Identifier>
3826.0

> <DILI>
1

$$$$

     RDKit          2D

 19 20  0  0  0  0  0  0  0  0999 V2000
   -4.4188    2.3321    0.0000 C   0  0  0  0  0  0  0  0  0  0  0  0
   -4.5814    0.8410    0.0000 C   0  0  0  0  0  0  0  0  0  0  0  0
   -5.8834    0.0961    0.0000 O   0  0  0  0  0  0  0  0  0  0  0  0
   -5.5773   -1.3724    0.0000 N   0  0  0  0  0  0  0  0  0  0  0  0
   -4.0861   -1.5350    0.0000 C   0  0  0  0  0  0  0  0  0  0  0  0
   -3.4706   -0.1671    0.0000 C   0  0  0  0  0  0  0  0  0  0  0  0
   -2.0022    0.1391    0.0000 C   0  0  0  0  0  0  0  0  0  0  0  0
   -1.5331    1.5638    0.0000 O   0  0  0  0  0  0  0  0  0  0  0  0
   -1.0029   -0.9796    0.0000 N   0  0  0  0  0  0  0  0  0  0  0  0
    0.4656   -0.6734    0.0000 C   0  0  0  0  0  0  0  0  0  0  0  0
    1.4649   -1.7921    0.0000 C   0  0  0  0  0  0  0  0  0  0  0  0
    2.9333   -1.4860    0.0000 C   0  0  0  0  0  0  0  0  0  0  0  0
    3.4024   -0.0612    0.0000 C   0  0  0  0  0  0  0  0  0  0  0  0
    4.8708    0.2449    0.0000 C   0  0  0  0  0  0  0  0  0  0  0  0
    6.3393    0.5511    0.0000 F   0  0  0  0  0  0  0  0  0  0  0  0
    5.1770   -1.2235    0.0000 F   0  0  0  0  0  0  0  0  0  0  0  0
    4.5647    1.7134    0.0000 F   0  0  0  0  0  0  0  0  0  0  0  0
    2.4031    1.0574    0.0000 C   0  0  0  0  0  0  0  0  0  0  0  0
    0.9347    0.7513    0.0000 C   0  0  0  0  0  0  0  0  0  0  0  0
  1  2  1  0
  2  3  1  0
  3  4  1  0
  4  5  2  0
  5  6  1  0
  6  7  1  0
  7  8  2  0
  7  9  1  0
  9 10  1  0
 10 11  2  0
 11 12  1  0
 12 13  2  0
 13 14  1  0
 14 15  1  0
 14 16  1  0
 14 17  1  0
 13 18  1  0
 18 19  2  0
  6  2  2  0
 19 10  1  0
M  END
> <Identifier>
3899.0

> <DILI>
1

$$$$

     RDKit          2D

 22 24  0  0  0  0  0  0  0  0999 V2000
   -6.4952   -2.9491    0.0000 N   0  0  0  0  0  0  0  0  0  0  0  0
   -5.1962   -2.1991    0.0000 C   0  0  0  0  0  0  0  0  0  0  0  0
   -3.8971   -1.4491    0.0000 C   0  0  0  0  0  0  0  0  0  0  0  0
   -3.8971    0.0509    0.0000 C   0  0  0  0  0  0  0  0  0  0  0  0
   -2.5981    0.8009    0.0000 C   0  0  0  0  0  0  0  0  0  0  0  0
   -1.2990    0.0509    0.0000 C   0  0  0  0  0  0  0  0  0  0  0  0
    0.0000    0.8009    0.0000 C   0  0  0  0  0  0  0  0  0  0  0  0
    1.2990    0.0509    0.0000 C   0  0  0  0  0  0  0  0  0  0  0  0
    1.2990   -1.4491    0.0000 C   0  0  0  0  0  0  0  0  0  0  0  0
    2.5981   -2.1991    0.0000 C   0  0  0  0  0  0  0  0  0  0  0  0
    3.8971   -1.4491    0.0000 C   0  0  0  0  0  0  0  0  0  0  0  0
    5.1962   -2.1991    0.0000 C   0  0  0  0  0  0  0  0  0  0  0  0
    6.4952   -2.9491    0.0000 N   0  0  0  0  0  0  0  0  0  0  0  0
    3.8971    0.0509    0.0000 C   0  0  0  0  0  0  0  0  0  0  0  0
    2.5981    0.8009    0.0000 C   0  0  0  0  0  0  0  0  0  0  0  0
   -0.0000    2.3009    0.0000 N   0  0  0  0  0  0  0  0  0  0  0  0
   -1.2135    3.1826    0.0000 C   0  0  0  0  0  0  0  0  0  0  0  0
   -0.7500    4.6092    0.0000 N   0  0  0  0  0  0  0  0  0  0  0  0
    0.7500    4.6092    0.0000 C   0  0  0  0  0  0  0  0  0  0  0  0
    1.2135    3.1826    0.0000 N   0  0  0  0  0  0  0  0  0  0  0  0
   -1.2990   -1.4491    0.0000 C   0  0  0  0  0  0  0  0  0  0  0  0
   -2.5981   -2.1991    0.0000 C   0  0  0  0  0  0  0  0  0  0  0  0
  1  2  3  0
  2  3  1  0
  3  4  2  0
  4  5  1  0
  5  6  2  0
  6  7  1  0
  7  8  1  0
  8  9  2  0
  9 10  1  0
 10 11  2  0
 11 12  1  0
 12 13  3  0
 11 14  1  0
 14 15  2  0
  7 16  1  0
 16 17  1  0
 17 18  2  0
 18 19  1  0
 19 20  2  0
  6 21  1  0
 21 22  2  0
 22  3  1  0
 15  8  1  0
 20 16  1  0
M  END
> <Identifier>
3902.0

> <DILI>
1

$$$$

     RDKit          2D

 25 27  0  0  0  0  0  0  0  0999 V2000
   -2.6058   -4.0684    0.0000 C   0  0  0  0  0  0  0  0  0  0  0  0
   -1.5676   -2.9858    0.0000 C   0  0  0  0  0  0  0  0  0  0  0  0
   -1.9860   -1.5454    0.0000 N   0  0  0  0  0  0  0  0  0  0  0  0
   -3.4427   -1.1875    0.0000 C   0  0  0  0  0  0  0  0  0  0  0  0
   -3.8611    0.2529    0.0000 C   0  0  0  0  0  0  0  0  0  0  0  0
   -5.3178    0.6108    0.0000 C   0  0  0  0  0  0  0  0  0  0  0  0
   -6.3561   -0.4718    0.0000 O   0  0  0  0  0  0  0  0  0  0  0  0
   -5.7363    2.0512    0.0000 O   0  0  0  0  0  0  0  0  0  0  0  0
   -2.8229    1.3355    0.0000 C   0  0  0  0  0  0  0  0  0  0  0  0
   -3.2413    2.7760    0.0000 O   0  0  0  0  0  0  0  0  0  0  0  0
   -1.3662    0.9777    0.0000 C   0  0  0  0  0  0  0  0  0  0  0  0
   -0.3280    2.0603    0.0000 C   0  0  0  0  0  0  0  0  0  0  0  0
    1.1287    1.7025    0.0000 C   0  0  0  0  0  0  0  0  0  0  0  0
    2.1670    2.7851    0.0000 F   0  0  0  0  0  0  0  0  0  0  0  0
    1.5472    0.2620    0.0000 C   0  0  0  0  0  0  0  0  0  0  0  0
    3.0039   -0.0958    0.0000 N   0  0  0  0  0  0  0  0  0  0  0  0
    3.4223   -1.5363    0.0000 C   0  0  0  0  0  0  0  0  0  0  0  0
    4.8790   -1.8941    0.0000 C   0  0  0  0  0  0  0  0  0  0  0  0
    5.9172   -0.8115    0.0000 N   0  0  0  0  0  0  0  0  0  0  0  0
    5.4988    0.6289    0.0000 C   0  0  0  0  0  0  0  0  0  0  0  0
    6.5371    1.7115    0.0000 C   0  0  0  0  0  0  0  0  0  0  0  0
    4.0421    0.9868    0.0000 C   0  0  0  0  0  0  0  0  0  0  0  0
    0.5089   -0.8206    0.0000 C   0  0  0  0  0  0  0  0  0  0  0  0
    0.9274   -2.2611    0.0000 F   0  0  0  0  0  0  0  0  0  0  0  0
   -0.9478   -0.4628    0.0000 C   0  0  0  0  0  0  0  0  0  0  0  0
  1  2  1  0
  2  3  1  0
  3  4  1  0
  4  5  2  0
  5  6  1  0
  6  7  2  0
  6  8  1  0
  5  9  1  0
  9 10  2  0
  9 11  1  0
 11 12  2  0
 12 13  1  0
 13 14  1  0
 13 15  2  0
 15 16  1  0
 16 17  1  0
 17 18  1  0
 18 19  1  0
 19 20  1  0
 20 21  1  0
 20 22  1  0
 15 23  1  0
 23 24  1  0
 23 25  2  0
 25  3  1  0
 25 11  1  0
 22 16  1  0
M  END
> <Identifier>
3948.0

> <DILI>
1

$$$$

     RDKit          2D

 34 37  0  0  0  0  0  0  0  0999 V2000
   -5.3166   -1.8073    0.0000 C   0  0  0  0  0  0  0  0  0  0  0  0
   -3.8803   -2.2397    0.0000 N   0  0  0  0  0  0  0  0  0  0  0  0
   -3.9002   -3.7396    0.0000 C   0  0  0  0  0  0  0  0  0  0  0  0
   -2.5715   -1.5070    0.0000 C   0  0  0  0  0  0  0  0  0  0  0  0
   -1.2825   -2.2741    0.0000 O   0  0  0  0  0  0  0  0  0  0  0  0
   -2.5516   -0.0071    0.0000 C   0  0  0  0  0  0  0  0  0  0  0  0
   -1.0517   -0.0270    0.0000 C   0  0  0  0  0  0  0  0  0  0  0  0
   -0.3190   -1.3358    0.0000 C   0  0  0  0  0  0  0  0  0  0  0  0
    1.1809   -1.3557    0.0000 N   0  0  0  0  0  0  0  0  0  0  0  0
    1.9136   -2.6645    0.0000 C   0  0  0  0  0  0  0  0  0  0  0  0
    3.4135   -2.6844    0.0000 C   0  0  0  0  0  0  0  0  0  0  0  0
    4.1806   -1.3954    0.0000 C   0  0  0  0  0  0  0  0  0  0  0  0
    5.3168   -2.3747    0.0000 O   0  0  0  0  0  0  0  0  0  0  0  0
    5.3423   -0.4465    0.0000 C   0  0  0  0  0  0  0  0  0  0  0  0
    6.7449   -0.9782    0.0000 C   0  0  0  0  0  0  0  0  0  0  0  0
    7.9067   -0.0293    0.0000 C   0  0  0  0  0  0  0  0  0  0  0  0
    7.6658    1.4512    0.0000 C   0  0  0  0  0  0  0  0  0  0  0  0
    8.8275    2.4001    0.0000 Cl  0  0  0  0  0  0  0  0  0  0  0  0
    6.2632    1.9829    0.0000 C   0  0  0  0  0  0  0  0  0  0  0  0
    5.1014    1.0340    0.0000 C   0  0  0  0  0  0  0  0  0  0  0  0
    3.4479   -0.0866    0.0000 C   0  0  0  0  0  0  0  0  0  0  0  0
    1.9480   -0.0667    0.0000 C   0  0  0  0  0  0  0  0  0  0  0  0
   -4.0515    0.0127    0.0000 C   0  0  0  0  0  0  0  0  0  0  0  0
   -4.8186   -1.2762    0.0000 C   0  0  0  0  0  0  0  0  0  0  0  0
   -6.3185   -1.2564    0.0000 C   0  0  0  0  0  0  0  0  0  0  0  0
   -7.0512    0.0525    0.0000 C   0  0  0  0  0  0  0  0  0  0  0  0
   -6.2841    1.3415    0.0000 C   0  0  0  0  0  0  0  0  0  0  0  0
   -4.7842    1.3216    0.0000 C   0  0  0  0  0  0  0  0  0  0  0  0
   -2.5318    1.4928    0.0000 C   0  0  0  0  0  0  0  0  0  0  0  0
   -1.2229    2.2255    0.0000 C   0  0  0  0  0  0  0  0  0  0  0  0
   -1.2030    3.7254    0.0000 C   0  0  0  0  0  0  0  0  0  0  0  0
   -2.4920    4.4925    0.0000 C   0  0  0  0  0  0  0  0  0  0  0  0
   -3.8009    3.7598    0.0000 C   0  0  0  0  0  0  0  0  0  0  0  0
   -3.8207    2.2599    0.0000 C   0  0  0  0  0  0  0  0  0  0  0  0
  1  2  1  0
  2  3  1  0
  2  4  1  0
  4  5  2  0
  4  6  1  0
  6  7  1  0
  7  8  1  0
  8  9  1  0
  9 10  1  0
 10 11  1  0
 11 12  1  0
 12 13  1  0
 12 14  1  0
 14 15  2  0
 15 16  1  0
 16 17  2  0
 17 18  1  0
 17 19  1  0
 19 20  2  0
 12 21  1  0
 21 22  1  0
  6 23  1  0
 23 24  2  0
 24 25  1  0
 25 26  2  0
 26 27  1  0
 27 28  2  0
  6 29  1  0
 29 30  2  0
 30 31  1  0
 31 32  2  0
 32 33  1  0
 33 34  2  0
 22  9  1  0
 28 23  1  0
 34 29  1  0
 20 14  1  0
M  END
> <Identifier>
3955.0

> <DILI>
0

$$$$

     RDKit          2D

 27 30  0  0  0  0  0  0  0  0999 V2000
    8.1768   -0.8224    0.0000 C   0  0  0  0  0  0  0  0  0  0  0  0
    7.1507    0.2717    0.0000 C   0  0  0  0  0  0  0  0  0  0  0  0
    5.6901   -0.0699    0.0000 O   0  0  0  0  0  0  0  0  0  0  0  0
    4.6639    1.0242    0.0000 C   0  0  0  0  0  0  0  0  0  0  0  0
    5.0984    2.4599    0.0000 O   0  0  0  0  0  0  0  0  0  0  0  0
    3.2034    0.6825    0.0000 N   0  0  0  0  0  0  0  0  0  0  0  0
    2.7689   -0.7532    0.0000 C   0  0  0  0  0  0  0  0  0  0  0  0
    1.3083   -1.0948    0.0000 C   0  0  0  0  0  0  0  0  0  0  0  0
    0.2822   -0.0007    0.0000 C   0  0  0  0  0  0  0  0  0  0  0  0
   -1.1784   -0.3424    0.0000 C   0  0  0  0  0  0  0  0  0  0  0  0
   -2.1199    0.8253    0.0000 C   0  0  0  0  0  0  0  0  0  0  0  0
   -1.3769    2.1284    0.0000 C   0  0  0  0  0  0  0  0  0  0  0  0
   -2.1339    3.4234    0.0000 C   0  0  0  0  0  0  0  0  0  0  0  0
   -3.6338    3.4153    0.0000 C   0  0  0  0  0  0  0  0  0  0  0  0
   -4.3908    4.7103    0.0000 Cl  0  0  0  0  0  0  0  0  0  0  0  0
   -4.3768    2.1123    0.0000 C   0  0  0  0  0  0  0  0  0  0  0  0
   -3.6199    0.8173    0.0000 C   0  0  0  0  0  0  0  0  0  0  0  0
   -4.5488   -0.3605    0.0000 C   0  0  0  0  0  0  0  0  0  0  0  0
   -4.2072   -1.8210    0.0000 C   0  0  0  0  0  0  0  0  0  0  0  0
   -2.8522   -2.4646    0.0000 C   0  0  0  0  0  0  0  0  0  0  0  0
   -2.9563   -3.9610    0.0000 C   0  0  0  0  0  0  0  0  0  0  0  0
   -1.7124   -4.7993    0.0000 C   0  0  0  0  0  0  0  0  0  0  0  0
   -0.3645   -4.1412    0.0000 C   0  0  0  0  0  0  0  0  0  0  0  0
   -0.2604   -2.6448    0.0000 N   0  0  0  0  0  0  0  0  0  0  0  0
   -1.5043   -1.8065    0.0000 C   0  0  0  0  0  0  0  0  0  0  0  0
    0.7166    1.4350    0.0000 C   0  0  0  0  0  0  0  0  0  0  0  0
    2.1772    1.7766    0.0000 C   0  0  0  0  0  0  0  0  0  0  0  0
  1  2  1  0
  2  3  1  0
  3  4  1  0
  4  5  2  0
  4  6  1  0
  6  7  1  0
  7  8  1  0
  8  9  1  0
  9 10  2  0
 10 11  1  0
 11 12  2  0
 12 13  1  0
 13 14  2  0
 14 15  1  0
 14 16  1  0
 16 17  2  0
 17 18  1  0
 18 19  1  0
 19 20  1  0
 20 21  2  0
 21 22  1  0
 22 23  2  0
 23 24  1  0
 24 25  2  0
  9 26  1  0
 26 27  1  0
 27  6  1  0
 25 10  1  0
 17 11  1  0
 25 20  1  0
M  END
> <Identifier>
3957.0

> <DILI>
0

$$$$

     RDKit          2D

 30 33  0  0  0  0  0  0  0  0999 V2000
    0.5898    4.4472    0.0000 C   0  0  0  0  0  0  0  0  0  0  0  0
    0.2670    2.9824    0.0000 C   0  0  0  0  0  0  0  0  0  0  0  0
   -1.1630    2.5296    0.0000 C   0  0  0  0  0  0  0  0  0  0  0  0
   -1.4859    1.0647    0.0000 C   0  0  0  0  0  0  0  0  0  0  0  0
   -2.9159    0.6119    0.0000 C   0  0  0  0  0  0  0  0  0  0  0  0
   -4.1228    1.5027    0.0000 N   0  0  0  0  0  0  0  0  0  0  0  0
   -5.3429    0.6301    0.0000 C   0  0  0  0  0  0  0  0  0  0  0  0
   -6.7660    1.1043    0.0000 Cl  0  0  0  0  0  0  0  0  0  0  0  0
   -4.8901   -0.7999    0.0000 C   0  0  0  0  0  0  0  0  0  0  0  0
   -5.7808   -2.0068    0.0000 C   0  0  0  0  0  0  0  0  0  0  0  0
   -7.2714   -1.8388    0.0000 O   0  0  0  0  0  0  0  0  0  0  0  0
   -3.3901   -0.8111    0.0000 N   0  0  0  0  0  0  0  0  0  0  0  0
   -2.5176   -2.0312    0.0000 C   0  0  0  0  0  0  0  0  0  0  0  0
   -1.0247   -1.8856    0.0000 C   0  0  0  0  0  0  0  0  0  0  0  0
   -0.1521   -3.1057    0.0000 C   0  0  0  0  0  0  0  0  0  0  0  0
    1.3408   -2.9601    0.0000 C   0  0  0  0  0  0  0  0  0  0  0  0
    1.9612   -1.5944    0.0000 C   0  0  0  0  0  0  0  0  0  0  0  0
    3.4541   -1.4488    0.0000 C   0  0  0  0  0  0  0  0  0  0  0  0
    4.3266   -2.6689    0.0000 C   0  0  0  0  0  0  0  0  0  0  0  0
    5.8196   -2.5233    0.0000 C   0  0  0  0  0  0  0  0  0  0  0  0
    6.4399   -1.1576    0.0000 C   0  0  0  0  0  0  0  0  0  0  0  0
    5.5674    0.0625    0.0000 C   0  0  0  0  0  0  0  0  0  0  0  0
    4.0744   -0.0831    0.0000 C   0  0  0  0  0  0  0  0  0  0  0  0
    3.2019    1.1370    0.0000 C   0  0  0  0  0  0  0  0  0  0  0  0
    1.7019    1.1482    0.0000 N   0  0  0  0  0  0  0  0  0  0  0  0
    1.2491    2.5782    0.0000 N   0  0  0  0  0  0  0  0  0  0  0  0
    2.4692    3.4508    0.0000 N   0  0  0  0  0  0  0  0  0  0  0  0
    3.6761    2.5601    0.0000 N   0  0  0  0  0  0  0  0  0  0  0  0
    1.0886   -0.3743    0.0000 C   0  0  0  0  0  0  0  0  0  0  0  0
   -0.4043   -0.5199    0.0000 C   0  0  0  0  0  0  0  0  0  0  0  0
  1  2  1  0
  2  3  1  0
  3  4  1  0
  4  5  1  0
  5  6  2  0
  6  7  1  0
  7  8  1  0
  7  9  2  0
  9 10  1  0
 10 11  1  0
  9 12  1  0
 12 13  1  0
 13 14  1  0
 14 15  2  0
 15 16  1  0
 16 17  2  0
 17 18  1  0
 18 19  2  0
 19 20  1  0
 20 21  2  0
 21 22  1  0
 22 23  2  0
 23 24  1  0
 24 25  1  0
 25 26  2  0
 26 27  1  0
 27 28  1  0
 17 29  1  0
 29 30  2  0
 12  5  1  0
 30 14  1  0
 23 18  1  0
 28 24  2  0
M  END
> <Identifier>
3961.0

> <DILI>
1

$$$$

     RDKit          2D

 21 24  0  0  0  0  0  0  0  0999 V2000
    6.3729    1.9689    0.0000 C   0  0  0  0  0  0  0  0  0  0  0  0
    5.1705    1.0721    0.0000 N   0  0  0  0  0  0  0  0  0  0  0  0
    3.7927    1.6651    0.0000 C   0  0  0  0  0  0  0  0  0  0  0  0
    2.5903    0.7683    0.0000 C   0  0  0  0  0  0  0  0  0  0  0  0
    1.2124    1.3612    0.0000 C   0  0  0  0  0  0  0  0  0  0  0  0
    0.0100    0.4645    0.0000 C   0  0  0  0  0  0  0  0  0  0  0  0
   -0.6790    0.0136    0.0000 C   0  0  0  0  0  0  0  0  0  0  0  0
   -1.7662   -0.7973    0.0000 C   0  0  0  0  0  0  0  0  0  0  0  0
   -2.3948   -1.3290    0.0000 C   0  0  0  0  0  0  0  0  0  0  0  0
   -2.5702    0.1607    0.0000 C   0  0  0  0  0  0  0  0  0  0  0  0
   -3.9481    0.7536    0.0000 C   0  0  0  0  0  0  0  0  0  0  0  0
   -4.1235    2.2433    0.0000 C   0  0  0  0  0  0  0  0  0  0  0  0
   -2.9211    3.1401    0.0000 C   0  0  0  0  0  0  0  0  0  0  0  0
   -1.5432    2.5471    0.0000 C   0  0  0  0  0  0  0  0  0  0  0  0
   -1.3678    1.0574    0.0000 C   0  0  0  0  0  0  0  0  0  0  0  0
   -1.0170   -1.9220    0.0000 C   0  0  0  0  0  0  0  0  0  0  0  0
   -0.8416   -3.4117    0.0000 C   0  0  0  0  0  0  0  0  0  0  0  0
    0.5362   -4.0046    0.0000 C   0  0  0  0  0  0  0  0  0  0  0  0
    1.7387   -3.1079    0.0000 C   0  0  0  0  0  0  0  0  0  0  0  0
    1.5633   -1.6182    0.0000 C   0  0  0  0  0  0  0  0  0  0  0  0
    0.1854   -1.0252    0.0000 C   0  0  0  0  0  0  0  0  0  0  0  0
  1  2  1  0
  2  3  1  0
  3  4  1  0
  4  5  1  0
  5  6  1  0
  6  7  1  0
  7  8  1  0
  8  9  1  0
  9 10  1  0
 10 11  2  0
 11 12  1  0
 12 13  2  0
 13 14  1  0
 14 15  2  0
  9 16  1  0
 16 17  2  0
 17 18  1  0
 18 19  2  0
 19 20  1  0
 20 21  2  0
 15  6  1  0
 21 16  1  0
 21  6  1  0
 15 10  1  0
M  END
> <Identifier>
4011.0

> <DILI>
0

$$$$

     RDKit          2D

 22 24  0  0  0  0  0  0  0  0999 V2000
   -8.0746    1.2700    0.0000 C   0  0  0  0  0  0  0  0  0  0  0  0
   -7.2034    0.0490    0.0000 O   0  0  0  0  0  0  0  0  0  0  0  0
   -5.7103    0.1929    0.0000 C   0  0  0  0  0  0  0  0  0  0  0  0
   -5.0884    1.5580    0.0000 O   0  0  0  0  0  0  0  0  0  0  0  0
   -4.8390   -1.0281    0.0000 N   0  0  0  0  0  0  0  0  0  0  0  0
   -3.3460   -0.8841    0.0000 C   0  0  0  0  0  0  0  0  0  0  0  0
   -2.3519   -2.0074    0.0000 N   0  0  0  0  0  0  0  0  0  0  0  0
   -0.9764   -1.4091    0.0000 C   0  0  0  0  0  0  0  0  0  0  0  0
    0.3887   -2.0309    0.0000 C   0  0  0  0  0  0  0  0  0  0  0  0
    1.6097   -1.1597    0.0000 C   0  0  0  0  0  0  0  0  0  0  0  0
    1.4657    0.3334    0.0000 C   0  0  0  0  0  0  0  0  0  0  0  0
    2.6868    1.2046    0.0000 C   0  0  0  0  0  0  0  0  0  0  0  0
    2.5428    2.6977    0.0000 O   0  0  0  0  0  0  0  0  0  0  0  0
    4.0518    0.5828    0.0000 C   0  0  0  0  0  0  0  0  0  0  0  0
    4.1958   -0.9103    0.0000 C   0  0  0  0  0  0  0  0  0  0  0  0
    5.5608   -1.5321    0.0000 C   0  0  0  0  0  0  0  0  0  0  0  0
    6.7819   -0.6609    0.0000 C   0  0  0  0  0  0  0  0  0  0  0  0
    6.6379    0.8322    0.0000 C   0  0  0  0  0  0  0  0  0  0  0  0
    5.2728    1.4540    0.0000 C   0  0  0  0  0  0  0  0  0  0  0  0
    0.1007    0.9552    0.0000 C   0  0  0  0  0  0  0  0  0  0  0  0
   -1.1204    0.0840    0.0000 C   0  0  0  0  0  0  0  0  0  0  0  0
   -2.5849    0.4085    0.0000 N   0  0  0  0  0  0  0  0  0  0  0  0
  1  2  1  0
  2  3  1  0
  3  4  2  0
  3  5  1  0
  5  6  1  0
  6  7  2  0
  7  8  1  0
  8  9  2  0
  9 10  1  0
 10 11  2  0
 11 12  1  0
 12 13  2  0
 12 14  1  0
 14 15  2  0
 15 16  1  0
 16 17  2  0
 17 18  1  0
 18 19  2  0
 11 20  1  0
 20 21  2  0
 21 22  1  0
 22  6  1  0
 21  8  1  0
 19 14  1  0
M  END
> <Identifier>
4030.0

> <DILI>
1

$$$$

     RDKit          2D

 28 31  0  0  0  0  0  0  0  0999 V2000
   -5.6390   -2.5105    0.0000 C   0  0  0  0  0  0  0  0  0  0  0  0
   -5.7767   -1.0169    0.0000 C   0  0  0  0  0  0  0  0  0  0  0  0
   -7.1391   -0.3893    0.0000 C   0  0  0  0  0  0  0  0  0  0  0  0
   -7.2769    1.1043    0.0000 C   0  0  0  0  0  0  0  0  0  0  0  0
   -6.0522    1.9704    0.0000 C   0  0  0  0  0  0  0  0  0  0  0  0
   -4.6898    1.3429    0.0000 C   0  0  0  0  0  0  0  0  0  0  0  0
   -3.4651    2.2090    0.0000 C   0  0  0  0  0  0  0  0  0  0  0  0
   -2.1027    1.5815    0.0000 N   0  0  0  0  0  0  0  0  0  0  0  0
   -1.9649    0.0878    0.0000 C   0  0  0  0  0  0  0  0  0  0  0  0
   -0.6025   -0.5397    0.0000 C   0  0  0  0  0  0  0  0  0  0  0  0
    0.6222    0.3264    0.0000 N   0  0  0  0  0  0  0  0  0  0  0  0
    1.9846   -0.3012    0.0000 C   0  0  0  0  0  0  0  0  0  0  0  0
    2.1223   -1.7948    0.0000 C   0  0  0  0  0  0  0  0  0  0  0  0
    0.8977   -2.6610    0.0000 C   0  0  0  0  0  0  0  0  0  0  0  0
    1.0354   -4.1546    0.0000 C   0  0  0  0  0  0  0  0  0  0  0  0
    2.3978   -4.7822    0.0000 C   0  0  0  0  0  0  0  0  0  0  0  0
    3.6225   -3.9161    0.0000 C   0  0  0  0  0  0  0  0  0  0  0  0
    3.4848   -2.4224    0.0000 C   0  0  0  0  0  0  0  0  0  0  0  0
    3.2093    0.5649    0.0000 C   0  0  0  0  0  0  0  0  0  0  0  0
    4.5717   -0.0626    0.0000 C   0  0  0  0  0  0  0  0  0  0  0  0
    5.7964    0.8035    0.0000 C   0  0  0  0  0  0  0  0  0  0  0  0
    5.6586    2.2972    0.0000 C   0  0  0  0  0  0  0  0  0  0  0  0
    6.8833    3.1633    0.0000 Cl  0  0  0  0  0  0  0  0  0  0  0  0
    4.2962    2.9247    0.0000 C   0  0  0  0  0  0  0  0  0  0  0  0
    3.0715    2.0586    0.0000 C   0  0  0  0  0  0  0  0  0  0  0  0
    0.4844    1.8200    0.0000 C   0  0  0  0  0  0  0  0  0  0  0  0
   -0.8780    2.4476    0.0000 C   0  0  0  0  0  0  0  0  0  0  0  0
   -4.5520   -0.1508    0.0000 C   0  0  0  0  0  0  0  0  0  0  0  0
  1  2  1  0
  2  3  2  0
  3  4  1  0
  4  5  2  0
  5  6  1  0
  6  7  1  0
  7  8  1  0
  8  9  1  0
  9 10  1  0
 10 11  1  0
 11 12  1  0
 12 13  1  0
 13 14  2  0
 14 15  1  0
 15 16  2  0
 16 17  1  0
 17 18  2  0
 12 19  1  0
 19 20  2  0
 20 21  1  0
 21 22  2  0
 22 23  1  0
 22 24  1  0
 24 25  2  0
 11 26  1  0
 26 27  1  0
  6 28  2  0
 28  2  1  0
 27  8  1  0
 18 13  1  0
 25 19  1  0
M  END
> <Identifier>
4034.0

> <DILI>
0

$$$$

     RDKit          2D

 19 20  0  0  0  0  0  0  0  0999 V2000
   -3.7627   -2.4377    0.0000 C   0  0  0  0  0  0  0  0  0  0  0  0
   -3.2627   -1.0235    0.0000 C   0  0  0  0  0  0  0  0  0  0  0  0
   -4.2374    0.1167    0.0000 C   0  0  0  0  0  0  0  0  0  0  0  0
   -3.7373    1.5309    0.0000 C   0  0  0  0  0  0  0  0  0  0  0  0
   -2.2625    1.8049    0.0000 C   0  0  0  0  0  0  0  0  0  0  0  0
   -1.7625    3.2191    0.0000 Cl  0  0  0  0  0  0  0  0  0  0  0  0
   -1.2878    0.6647    0.0000 C   0  0  0  0  0  0  0  0  0  0  0  0
    0.1869    0.9388    0.0000 N   0  0  0  0  0  0  0  0  0  0  0  0
    1.1616   -0.2014    0.0000 C   0  0  0  0  0  0  0  0  0  0  0  0
    0.6615   -1.6156    0.0000 C   0  0  0  0  0  0  0  0  0  0  0  0
    1.6362   -2.7558    0.0000 C   0  0  0  0  0  0  0  0  0  0  0  0
    3.1110   -2.4817    0.0000 C   0  0  0  0  0  0  0  0  0  0  0  0
    3.6110   -1.0676    0.0000 C   0  0  0  0  0  0  0  0  0  0  0  0
    2.6364    0.0726    0.0000 C   0  0  0  0  0  0  0  0  0  0  0  0
    3.1364    1.4868    0.0000 C   0  0  0  0  0  0  0  0  0  0  0  0
    2.1617    2.6270    0.0000 O   0  0  0  0  0  0  0  0  0  0  0  0
    4.6112    1.7608    0.0000 O   0  0  0  0  0  0  0  0  0  0  0  0
   -1.7879   -0.7494    0.0000 C   0  0  0  0  0  0  0  0  0  0  0  0
   -0.8132   -1.8896    0.0000 Cl  0  0  0  0  0  0  0  0  0  0  0  0
  1  2  1  0
  2  3  2  0
  3  4  1  0
  4  5  2  0
  5  6  1  0
  5  7  1  0
  7  8  1  0
  8  9  1  0
  9 10  2  0
 10 11  1  0
 11 12  2  0
 12 13  1  0
 13 14  2  0
 14 15  1  0
 15 16  2  0
 15 17  1  0
  7 18  2  0
 18 19  1  0
 18  2  1  0
 14  9  1  0
M  END
> <Identifier>
4037.0

> <DILI>
1

$$$$

     RDKit          2D

 18 19  0  0  0  0  0  0  0  0999 V2000
   -5.0987   -1.1591    0.0000 C   0  0  0  0  0  0  0  0  0  0  0  0
   -3.8914   -0.2690    0.0000 C   0  0  0  0  0  0  0  0  0  0  0  0
   -4.0587    1.2217    0.0000 C   0  0  0  0  0  0  0  0  0  0  0  0
   -2.8514    2.1119    0.0000 C   0  0  0  0  0  0  0  0  0  0  0  0
   -1.4768    1.5114    0.0000 C   0  0  0  0  0  0  0  0  0  0  0  0
   -1.3095    0.0208    0.0000 C   0  0  0  0  0  0  0  0  0  0  0  0
    0.0651   -0.5797    0.0000 N   0  0  0  0  0  0  0  0  0  0  0  0
    1.2723    0.3105    0.0000 C   0  0  0  0  0  0  0  0  0  0  0  0
    1.1051    1.8011    0.0000 C   0  0  0  0  0  0  0  0  0  0  0  0
    2.3124    2.6913    0.0000 C   0  0  0  0  0  0  0  0  0  0  0  0
    3.6869    2.0909    0.0000 C   0  0  0  0  0  0  0  0  0  0  0  0
    3.8542    0.6002    0.0000 C   0  0  0  0  0  0  0  0  0  0  0  0
    2.6469   -0.2900    0.0000 C   0  0  0  0  0  0  0  0  0  0  0  0
    2.8142   -1.7806    0.0000 C   0  0  0  0  0  0  0  0  0  0  0  0
    4.1888   -2.3811    0.0000 O   0  0  0  0  0  0  0  0  0  0  0  0
    1.6069   -2.6708    0.0000 O   0  0  0  0  0  0  0  0  0  0  0  0
   -2.5168   -0.8694    0.0000 C   0  0  0  0  0  0  0  0  0  0  0  0
   -2.3495   -2.3601    0.0000 C   0  0  0  0  0  0  0  0  0  0  0  0
  1  2  1  0
  2  3  2  0
  3  4  1  0
  4  5  2  0
  5  6  1  0
  6  7  1  0
  7  8  1  0
  8  9  2  0
  9 10  1  0
 10 11  2  0
 11 12  1  0
 12 13  2  0
 13 14  1  0
 14 15  2  0
 14 16  1  0
  6 17  2  0
 17 18  1  0
 17  2  1  0
 13  8  1  0
M  END
> <Identifier>
4044.0

> <DILI>
1

$$$$

     RDKit          2D

 26 28  0  0  0  0  0  0  0  0999 V2000
   -1.7867    3.0336    0.0000 O   0  0  0  0  0  0  0  0  0  0  0  0
   -1.9458    1.5420    0.0000 C   0  0  0  0  0  0  0  0  0  0  0  0
   -0.7337    0.6585    0.0000 C   0  0  0  0  0  0  0  0  0  0  0  0
   -0.8928   -0.8331    0.0000 C   0  0  0  0  0  0  0  0  0  0  0  0
    0.3193   -1.7166    0.0000 C   0  0  0  0  0  0  0  0  0  0  0  0
    0.1602   -3.2082    0.0000 C   0  0  0  0  0  0  0  0  0  0  0  0
    0.0011   -4.6997    0.0000 F   0  0  0  0  0  0  0  0  0  0  0  0
   -1.3313   -3.0491    0.0000 F   0  0  0  0  0  0  0  0  0  0  0  0
    1.6517   -3.3673    0.0000 F   0  0  0  0  0  0  0  0  0  0  0  0
    1.6906   -1.1087    0.0000 N   0  0  0  0  0  0  0  0  0  0  0  0
    1.8497    0.3829    0.0000 C   0  0  0  0  0  0  0  0  0  0  0  0
    3.2210    0.9908    0.0000 C   0  0  0  0  0  0  0  0  0  0  0  0
    4.4331    0.1072    0.0000 C   0  0  0  0  0  0  0  0  0  0  0  0
    5.6453   -0.7763    0.0000 F   0  0  0  0  0  0  0  0  0  0  0  0
    5.3167    1.3194    0.0000 F   0  0  0  0  0  0  0  0  0  0  0  0
    3.5496   -1.1049    0.0000 F   0  0  0  0  0  0  0  0  0  0  0  0
    3.3801    2.4824    0.0000 C   0  0  0  0  0  0  0  0  0  0  0  0
    2.1680    3.3659    0.0000 C   0  0  0  0  0  0  0  0  0  0  0  0
    0.7967    2.7580    0.0000 C   0  0  0  0  0  0  0  0  0  0  0  0
    0.6376    1.2664    0.0000 C   0  0  0  0  0  0  0  0  0  0  0  0
   -3.3171    0.9341    0.0000 C   0  0  0  0  0  0  0  0  0  0  0  0
   -4.5293    1.8177    0.0000 C   0  0  0  0  0  0  0  0  0  0  0  0
   -5.9005    1.2097    0.0000 C   0  0  0  0  0  0  0  0  0  0  0  0
   -6.0597   -0.2818    0.0000 C   0  0  0  0  0  0  0  0  0  0  0  0
   -4.8475   -1.1654    0.0000 C   0  0  0  0  0  0  0  0  0  0  0  0
   -3.4762   -0.5575    0.0000 N   0  0  0  0  0  0  0  0  0  0  0  0
  1  2  1  0
  2  3  1  0
  3  4  2  0
  4  5  1  0
  5  6  1  0
  6  7  1  0
  6  8  1  0
  6  9  1  0
  5 10  2  0
 10 11  1  0
 11 12  2  0
 12 13  1  0
 13 14  1  0
 13 15  1  0
 13 16  1  0
 12 17  1  0
 17 18  2  0
 18 19  1  0
 19 20  2  0
  2 21  1  0
 21 22  1  0
 22 23  1  0
 23 24  1  0
 24 25  1  0
 25 26  1  0
 20  3  1  0
 26 21  1  0
 20 11  1  0
M  END
> <Identifier>
4046.0

> <DILI>
0

$$$$

     RDKit          2D

 13 15  0  0  0  0  0  0  0  0999 V2000
   -0.7069    2.3008    0.0000 C   0  0  0  0  0  0  0  0  0  0  0  0
    0.1230    1.0513    0.0000 C   0  0  0  0  0  0  0  0  0  0  0  0
   -0.5442   -0.2922    0.0000 C   0  0  0  0  0  0  0  0  0  0  0  0
    0.2856   -1.5417    0.0000 C   0  0  0  0  0  0  0  0  0  0  0  0
    1.7827   -1.4478    0.0000 C   0  0  0  0  0  0  0  0  0  0  0  0
    2.4499   -0.1044    0.0000 C   0  0  0  0  0  0  0  0  0  0  0  0
    3.9469   -0.0105    0.0000 C   0  0  0  0  0  0  0  0  0  0  0  0
    1.6200    1.1452    0.0000 C   0  0  0  0  0  0  0  0  0  0  0  0
   -0.7918    0.4438    0.0000 C   0  0  0  0  0  0  0  0  0  0  0  0
   -2.0413   -0.3861    0.0000 C   0  0  0  0  0  0  0  0  0  0  0  0
   -3.5384   -0.4800    0.0000 N   0  0  0  0  0  0  0  0  0  0  0  0
   -1.2114   -1.6356    0.0000 C   0  0  0  0  0  0  0  0  0  0  0  0
   -1.3741    0.9573    0.0000 C   0  0  0  0  0  0  0  0  0  0  0  0
  1  2  1  0
  2  3  1  0
  3  4  1  0
  4  5  1  0
  5  6  1  0
  6  7  1  0
  6  8  1  0
  6  9  1  0
  9 10  1  0
 10 11  1  0
 10 12  1  0
 10 13  1  0
  8  2  1  0
 13  2  1  0
 12  4  1  0
M  END
> <Identifier>
4054.0

> <DILI>
0

$$$$

     RDKit          2D

 26 29  0  0  0  0  0  0  0  0999 V2000
   -1.8783   -3.2712    0.0000 C   0  0  0  0  0  0  0  0  0  0  0  0
   -3.0849   -2.3800    0.0000 N   0  0  0  0  0  0  0  0  0  0  0  0
   -4.4599   -2.9793    0.0000 C   0  0  0  0  0  0  0  0  0  0  0  0
   -5.6665   -2.0881    0.0000 C   0  0  0  0  0  0  0  0  0  0  0  0
   -5.4980   -0.5976    0.0000 C   0  0  0  0  0  0  0  0  0  0  0  0
   -4.1229    0.0017    0.0000 C   0  0  0  0  0  0  0  0  0  0  0  0
   -2.9163   -0.8895    0.0000 C   0  0  0  0  0  0  0  0  0  0  0  0
   -1.5413   -0.2902    0.0000 C   0  0  0  0  0  0  0  0  0  0  0  0
   -0.3347   -1.1814    0.0000 C   0  0  0  0  0  0  0  0  0  0  0  0
    1.0404   -0.5821    0.0000 N   0  0  0  0  0  0  0  0  0  0  0  0
    2.2469   -1.4733    0.0000 C   0  0  0  0  0  0  0  0  0  0  0  0
    2.0784   -2.9638    0.0000 C   0  0  0  0  0  0  0  0  0  0  0  0
    3.2849   -3.8550    0.0000 C   0  0  0  0  0  0  0  0  0  0  0  0
    4.6600   -3.2557    0.0000 C   0  0  0  0  0  0  0  0  0  0  0  0
    4.8285   -1.7652    0.0000 C   0  0  0  0  0  0  0  0  0  0  0  0
    3.6220   -0.8740    0.0000 C   0  0  0  0  0  0  0  0  0  0  0  0
    3.7905    0.6165    0.0000 S   0  0  0  0  0  0  0  0  0  0  0  0
    2.5840    1.5077    0.0000 C   0  0  0  0  0  0  0  0  0  0  0  0
    2.7525    2.9982    0.0000 C   0  0  0  0  0  0  0  0  0  0  0  0
    1.5460    3.8894    0.0000 C   0  0  0  0  0  0  0  0  0  0  0  0
    0.1709    3.2901    0.0000 C   0  0  0  0  0  0  0  0  0  0  0  0
   -1.0357    4.1813    0.0000 S   0  0  0  0  0  0  0  0  0  0  0  0
   -0.8671    5.6718    0.0000 C   0  0  0  0  0  0  0  0  0  0  0  0
   -2.4107    3.5820    0.0000 O   0  0  0  0  0  0  0  0  0  0  0  0
    0.0024    1.7996    0.0000 C   0  0  0  0  0  0  0  0  0  0  0  0
    1.2089    0.9084    0.0000 C   0  0  0  0  0  0  0  0  0  0  0  0
  1  2  1  0
  2  3  1  0
  3  4  1  0
  4  5  1  0
  5  6  1  0
  6  7  1  0
  7  8  1  0
  8  9  1  0
  9 10  1  0
 10 11  1  0
 11 12  2  0
 12 13  1  0
 13 14  2  0
 14 15  1  0
 15 16  2  0
 16 17  1  0
 17 18  1  0
 18 19  2  0
 19 20  1  0
 20 21  2  0
 21 22  1  0
 22 23  1  0
 22 24  2  0
 21 25  1  0
 25 26  2  0
  7  2  1  0
 26 10  1  0
 16 11  1  0
 26 18  1  0
M  END
> <Identifier>
4078.0

> <DILI>
1

$$$$

     RDKit          2D

 15 15  0  0  0  0  0  0  0  0999 V2000
   -5.7196   -0.2759    0.0000 C   0  0  0  0  0  0  0  0  0  0  0  0
   -4.3308    0.2908    0.0000 C   0  0  0  0  0  0  0  0  0  0  0  0
   -4.1271    1.7769    0.0000 C   0  0  0  0  0  0  0  0  0  0  0  0
   -3.1456   -0.6287    0.0000 N   0  0  0  0  0  0  0  0  0  0  0  0
   -1.7567   -0.0620    0.0000 C   0  0  0  0  0  0  0  0  0  0  0  0
   -0.5716   -0.9815    0.0000 C   0  0  0  0  0  0  0  0  0  0  0  0
   -0.7753   -2.4676    0.0000 O   0  0  0  0  0  0  0  0  0  0  0  0
    0.8173   -0.4148    0.0000 C   0  0  0  0  0  0  0  0  0  0  0  0
    1.0210    1.0713    0.0000 C   0  0  0  0  0  0  0  0  0  0  0  0
    2.4098    1.6379    0.0000 C   0  0  0  0  0  0  0  0  0  0  0  0
    2.6135    3.1241    0.0000 O   0  0  0  0  0  0  0  0  0  0  0  0
    3.5950    0.7185    0.0000 C   0  0  0  0  0  0  0  0  0  0  0  0
    3.3913   -0.7676    0.0000 C   0  0  0  0  0  0  0  0  0  0  0  0
    4.5764   -1.6871    0.0000 O   0  0  0  0  0  0  0  0  0  0  0  0
    2.0024   -1.3343    0.0000 C   0  0  0  0  0  0  0  0  0  0  0  0
  1  2  1  0
  2  3  1  0
  2  4  1  0
  4  5  1  0
  5  6  1  0
  6  7  1  0
  6  8  1  0
  8  9  2  0
  9 10  1  0
 10 11  1  0
 10 12  2  0
 12 13  1  0
 13 14  1  0
 13 15  2  0
 15  8  1  0
M  END
> <Identifier>
4086.0

> <DILI>
0

$$$$

     RDKit          2D

  9  8  0  0  0  0  0  0  0  0999 V2000
   -2.2062    1.7302    0.0000 C   0  0  0  0  0  0  0  0  0  0  0  0
   -1.9487    0.2525    0.0000 N   0  0  0  0  0  0  0  0  0  0  0  0
   -3.0997   -0.7094    0.0000 C   0  0  0  0  0  0  0  0  0  0  0  0
   -0.5402   -0.2633    0.0000 C   0  0  0  0  0  0  0  0  0  0  0  0
   -0.2826   -1.7410    0.0000 N   0  0  0  0  0  0  0  0  0  0  0  0
    0.6108    0.6986    0.0000 N   0  0  0  0  0  0  0  0  0  0  0  0
    2.0193    0.1828    0.0000 C   0  0  0  0  0  0  0  0  0  0  0  0
    3.1703    1.1447    0.0000 N   0  0  0  0  0  0  0  0  0  0  0  0
    2.2769   -1.2950    0.0000 N   0  0  0  0  0  0  0  0  0  0  0  0
  1  2  1  0
  2  3  1  0
  2  4  1  0
  4  5  2  0
  4  6  1  0
  6  7  2  0
  7  8  1  0
  7  9  1  0
M  END
> <Identifier>
4091.0

> <DILI>
0

$$$$

     RDKit          2D

 24 26  0  0  0  0  0  0  0  0999 V2000
   -2.2523   -2.4241    0.0000 C   0  0  0  0  0  0  0  0  0  0  0  0
   -3.4163   -1.4780    0.0000 C   0  0  0  0  0  0  0  0  0  0  0  0
   -4.8176   -2.0130    0.0000 C   0  0  0  0  0  0  0  0  0  0  0  0
   -5.9816   -1.0669    0.0000 C   0  0  0  0  0  0  0  0  0  0  0  0
   -5.7442    0.4142    0.0000 C   0  0  0  0  0  0  0  0  0  0  0  0
   -4.3429    0.9492    0.0000 C   0  0  0  0  0  0  0  0  0  0  0  0
   -3.1789    0.0031    0.0000 C   0  0  0  0  0  0  0  0  0  0  0  0
   -1.7776    0.5381    0.0000 N   0  0  0  0  0  0  0  0  0  0  0  0
   -0.6136   -0.4080    0.0000 C   0  0  0  0  0  0  0  0  0  0  0  0
   -0.8509   -1.8891    0.0000 O   0  0  0  0  0  0  0  0  0  0  0  0
    0.7878    0.1269    0.0000 C   0  0  0  0  0  0  0  0  0  0  0  0
    1.9518   -0.8192    0.0000 C   0  0  0  0  0  0  0  0  0  0  0  0
    3.3531   -0.2842    0.0000 C   0  0  0  0  0  0  0  0  0  0  0  0
    4.5171   -1.2303    0.0000 S   0  0  0  0  0  0  0  0  0  0  0  0
    5.6811   -2.1764    0.0000 N   0  0  0  0  0  0  0  0  0  0  0  0
    3.5710   -2.3943    0.0000 O   0  0  0  0  0  0  0  0  0  0  0  0
    5.4632   -0.0663    0.0000 O   0  0  0  0  0  0  0  0  0  0  0  0
    3.5905    1.1969    0.0000 C   0  0  0  0  0  0  0  0  0  0  0  0
    4.9919    1.7319    0.0000 Cl  0  0  0  0  0  0  0  0  0  0  0  0
    2.4265    2.1430    0.0000 C   0  0  0  0  0  0  0  0  0  0  0  0
    1.0252    1.6080    0.0000 C   0  0  0  0  0  0  0  0  0  0  0  0
   -0.1388    2.5542    0.0000 N   0  0  0  0  0  0  0  0  0  0  0  0
   -1.5402    2.0192    0.0000 C   0  0  0  0  0  0  0  0  0  0  0  0
   -2.7042    2.9653    0.0000 C   0  0  0  0  0  0  0  0  0  0  0  0
  1  2  1  0
  2  3  2  0
  3  4  1  0
  4  5  2  0
  5  6  1  0
  6  7  2  0
  7  8  1  0
  8  9  1  0
  9 10  2  0
  9 11  1  0
 11 12  2  0
 12 13  1  0
 13 14  1  0
 14 15  1  0
 14 16  2  0
 14 17  2  0
 13 18  2  0
 18 19  1  0
 18 20  1  0
 20 21  2  0
 21 22  1  0
 22 23  1  0
 23 24  1  0
  7  2  1  0
 23  8  1  0
 21 11  1  0
M  END
> <Identifier>
4170.0

> <DILI>
1

$$$$

     RDKit          2D

 12 12  0  0  0  0  0  0  0  0999 V2000
    2.6986   -2.1335    0.0000 C   0  0  0  0  0  0  0  0  0  0  0  0
    2.0220   -0.7948    0.0000 C   0  0  0  0  0  0  0  0  0  0  0  0
    2.7074    0.5395    0.0000 N   0  0  0  0  0  0  0  0  0  0  0  0
    1.6502    1.6036    0.0000 C   0  0  0  0  0  0  0  0  0  0  0  0
    0.3114    0.9270    0.0000 C   0  0  0  0  0  0  0  0  0  0  0  0
   -1.0228    1.6123    0.0000 N   0  0  0  0  0  4  0  0  0  0  0  0
   -2.2835    0.7995    0.0000 O   0  0  0  0  0  0  0  0  0  0  0  0
   -1.0964    3.1105    0.0000 O   0  0  0  0  0  1  0  0  0  0  0  0
    0.5412   -0.5553    0.0000 N   0  0  0  0  0  0  0  0  0  0  0  0
   -0.5229   -1.6125    0.0000 C   0  0  0  0  0  0  0  0  0  0  0  0
   -1.9705   -1.2195    0.0000 C   0  0  0  0  0  0  0  0  0  0  0  0
   -3.0346   -2.2767    0.0000 O   0  0  0  0  0  0  0  0  0  0  0  0
  1  2  1  0
  2  3  2  0
  3  4  1  0
  4  5  2  0
  5  6  1  0
  6  7  2  0
  6  8  1  0
  5  9  1  0
  9 10  1  0
 10 11  1  0
 11 12  1  0
  9  2  1  0
M  CHG  2   6   1   8  -1
M  END
> <Identifier>
4173.0

> <DILI>
1

$$$$

     RDKit          2D

 17 18  0  0  0  0  0  0  0  0999 V2000
   -1.1096   -2.0726    0.0000 C   0  0  0  0  0  0  0  0  0  0  0  0
   -0.5288   -0.6896    0.0000 C   0  0  0  0  0  0  0  0  0  0  0  0
    0.0519    0.6934    0.0000 C   0  0  0  0  0  0  0  0  0  0  0  0
    0.8542   -1.2704    0.0000 C   0  0  0  0  0  0  0  0  0  0  0  0
    1.0427   -2.7585    0.0000 O   0  0  0  0  0  0  0  0  0  0  0  0
    2.0486   -0.3630    0.0000 C   0  0  0  0  0  0  0  0  0  0  0  0
    3.4316   -0.9438    0.0000 C   0  0  0  0  0  0  0  0  0  0  0  0
    4.6261   -0.0365    0.0000 C   0  0  0  0  0  0  0  0  0  0  0  0
    4.4376    1.4516    0.0000 C   0  0  0  0  0  0  0  0  0  0  0  0
    3.0546    2.0324    0.0000 N   0  0  0  0  0  0  0  0  0  0  0  0
    1.8601    1.1251    0.0000 C   0  0  0  0  0  0  0  0  0  0  0  0
   -1.9118   -0.1088    0.0000 C   0  0  0  0  0  0  0  0  0  0  0  0
   -2.1004    1.3793    0.0000 C   0  0  0  0  0  0  0  0  0  0  0  0
   -3.4834    1.9601    0.0000 C   0  0  0  0  0  0  0  0  0  0  0  0
   -4.6778    1.0527    0.0000 C   0  0  0  0  0  0  0  0  0  0  0  0
   -4.4893   -0.4354    0.0000 N   0  0  0  0  0  0  0  0  0  0  0  0
   -3.1063   -1.0161    0.0000 C   0  0  0  0  0  0  0  0  0  0  0  0
  1  2  1  0
  2  3  1  0
  2  4  1  0
  4  5  2  0
  4  6  1  0
  6  7  2  0
  7  8  1  0
  8  9  2  0
  9 10  1  0
 10 11  2  0
  2 12  1  0
 12 13  2  0
 13 14  1  0
 14 15  2  0
 15 16  1  0
 16 17  2  0
 11  6  1  0
 17 12  1  0
M  END
> <Identifier>
4174.0

> <DILI>
0

$$$$

     RDKit          2D

 23 26  0  0  0  0  0  0  0  0999 V2000
   -4.6961   -1.2244    0.0000 C   0  0  0  0  0  0  0  0  0  0  0  0
   -4.0503    0.1295    0.0000 C   0  0  0  0  0  0  0  0  0  0  0  0
   -4.7659    1.4477    0.0000 N   0  0  0  0  0  0  0  0  0  0  0  0
   -3.7333    2.5357    0.0000 C   0  0  0  0  0  0  0  0  0  0  0  0
   -2.3795    1.8899    0.0000 C   0  0  0  0  0  0  0  0  0  0  0  0
   -2.5754    0.4027    0.0000 N   0  0  0  0  0  0  0  0  0  0  0  0
   -1.5348   -0.6777    0.0000 C   0  0  0  0  0  0  0  0  0  0  0  0
   -2.1603   -2.0410    0.0000 C   0  0  0  0  0  0  0  0  0  0  0  0
   -1.2924   -3.2644    0.0000 C   0  0  0  0  0  0  0  0  0  0  0  0
    0.2011   -3.1244    0.0000 C   0  0  0  0  0  0  0  0  0  0  0  0
    1.0690   -4.3478    0.0000 Cl  0  0  0  0  0  0  0  0  0  0  0  0
    0.8266   -1.7611    0.0000 C   0  0  0  0  0  0  0  0  0  0  0  0
   -0.0413   -0.5377    0.0000 C   0  0  0  0  0  0  0  0  0  0  0  0
    0.7804    0.7172    0.0000 C   0  0  0  0  0  0  0  0  0  0  0  0
    2.2676    0.5213    0.0000 C   0  0  0  0  0  0  0  0  0  0  0  0
    2.8415   -0.8645    0.0000 C   0  0  0  0  0  0  0  0  0  0  0  0
    4.3287   -1.0604    0.0000 C   0  0  0  0  0  0  0  0  0  0  0  0
    5.2419    0.1296    0.0000 C   0  0  0  0  0  0  0  0  0  0  0  0
    4.6679    1.5154    0.0000 C   0  0  0  0  0  0  0  0  0  0  0  0
    3.1808    1.7113    0.0000 C   0  0  0  0  0  0  0  0  0  0  0  0
    2.6068    3.0971    0.0000 F   0  0  0  0  0  0  0  0  0  0  0  0
    0.3116    2.1421    0.0000 N   0  0  0  0  0  0  0  0  0  0  0  0
   -1.0947    2.6640    0.0000 C   0  0  0  0  0  0  0  0  0  0  0  0
  1  2  1  0
  2  3  2  0
  3  4  1  0
  4  5  2  0
  5  6  1  0
  6  7  1  0
  7  8  2  0
  8  9  1  0
  9 10  2  0
 10 11  1  0
 10 12  1  0
 12 13  2  0
 13 14  1  0
 14 15  1  0
 15 16  2  0
 16 17  1  0
 17 18  2  0
 18 19  1  0
 19 20  2  0
 20 21  1  0
 14 22  2  0
 22 23  1  0
  6  2  1  0
 13  7  1  0
 20 15  1  0
 23  5  1  0
M  END
> <Identifier>
4192.0

> <DILI>
0

$$$$

     RDKit          2D

 18 18  0  0  0  0  0  0  0  0999 V2000
   -4.1988   -3.6679    0.0000 C   0  0  0  0  0  0  0  0  0  0  0  0
   -2.8029   -3.1188    0.0000 O   0  0  0  0  0  0  0  0  0  0  0  0
   -2.5805   -1.6354    0.0000 C   0  0  0  0  0  0  0  0  0  0  0  0
   -3.7539   -0.7010    0.0000 C   0  0  0  0  0  0  0  0  0  0  0  0
   -3.5315    0.7824    0.0000 C   0  0  0  0  0  0  0  0  0  0  0  0
   -2.1356    1.3314    0.0000 C   0  0  0  0  0  0  0  0  0  0  0  0
   -1.9131    2.8148    0.0000 O   0  0  0  0  0  0  0  0  0  0  0  0
   -3.0866    3.7492    0.0000 C   0  0  0  0  0  0  0  0  0  0  0  0
   -0.9621    0.3971    0.0000 C   0  0  0  0  0  0  0  0  0  0  0  0
    0.4338    0.9461    0.0000 C   0  0  0  0  0  0  0  0  0  0  0  0
    0.6562    2.4295    0.0000 O   0  0  0  0  0  0  0  0  0  0  0  0
    1.6072    0.0118    0.0000 C   0  0  0  0  0  0  0  0  0  0  0  0
    3.0031    0.5608    0.0000 N   0  0  0  0  0  0  0  0  0  0  0  0
    4.1766   -0.3735    0.0000 C   0  0  0  0  0  0  0  0  0  0  0  0
    3.9541   -1.8569    0.0000 O   0  0  0  0  0  0  0  0  0  0  0  0
    5.5725    0.1755    0.0000 C   0  0  0  0  0  0  0  0  0  0  0  0
    6.7459   -0.7588    0.0000 N   0  0  0  0  0  0  0  0  0  0  0  0
   -1.1846   -1.0863    0.0000 C   0  0  0  0  0  0  0  0  0  0  0  0
  1  2  1  0
  2  3  1  0
  3  4  2  0
  4  5  1  0
  5  6  2  0
  6  7  1  0
  7  8  1  0
  6  9  1  0
  9 10  1  0
 10 11  1  0
 10 12  1  0
 12 13  1  0
 13 14  1  0
 14 15  2  0
 14 16  1  0
 16 17  1  0
  9 18  2  0
 18  3  1  0
M  END
> <Identifier>
4195.0

> <DILI>
0

$$$$

     RDKit          2D

 15 16  0  0  0  0  0  0  0  0999 V2000
    2.9000   -2.5981    0.0000 N   0  0  0  0  0  0  0  0  0  0  0  0
    2.1500   -1.2990    0.0000 C   0  0  0  0  0  0  0  0  0  0  0  0
    0.6500   -1.2990    0.0000 N   0  0  0  0  0  0  0  0  0  0  0  0
   -0.1000    0.0000    0.0000 C   0  0  0  0  0  0  0  0  0  0  0  0
   -1.6000   -0.0000    0.0000 N   0  0  0  0  0  0  0  0  0  0  0  0
   -2.3500    1.2990    0.0000 C   0  0  0  0  0  0  0  0  0  0  0  0
   -3.8500    1.2990    0.0000 C   0  0  0  0  0  0  0  0  0  0  0  0
   -4.6000   -0.0000    0.0000 C   0  0  0  0  0  0  0  0  0  0  0  0
   -3.8500   -1.2990    0.0000 C   0  0  0  0  0  0  0  0  0  0  0  0
   -2.3500   -1.2990    0.0000 C   0  0  0  0  0  0  0  0  0  0  0  0
    0.6500    1.2990    0.0000 C   0  0  0  0  0  0  0  0  0  0  0  0
    2.1500    1.2990    0.0000 C   0  0  0  0  0  0  0  0  0  0  0  0
    2.9000    2.5981    0.0000 N   0  0  0  0  0  0  0  0  0  0  0  0
    2.9000    0.0000    0.0000 N   0  0  0  0  0  0  0  0  0  0  0  0
    4.4000    0.0000    0.0000 O   0  0  0  0  0  0  0  0  0  0  0  0
  1  2  2  0
  2  3  1  0
  3  4  2  0
  4  5  1  0
  5  6  1  0
  6  7  1  0
  7  8  1  0
  8  9  1  0
  9 10  1  0
  4 11  1  0
 11 12  2  0
 12 13  1  0
 12 14  1  0
 14 15  1  0
 14  2  1  0
 10  5  1  0
M  END
> <Identifier>
4201.0

> <DILI>
0

$$$$

     RDKit          2D

 18 19  0  0  0  0  0  0  0  0999 V2000
   -5.4134   -1.1307    0.0000 Cl  0  0  0  0  0  0  0  0  0  0  0  0
   -3.9851   -0.6724    0.0000 C   0  0  0  0  0  0  0  0  0  0  0  0
   -3.6679    0.7937    0.0000 C   0  0  0  0  0  0  0  0  0  0  0  0
   -2.2396    1.2520    0.0000 C   0  0  0  0  0  0  0  0  0  0  0  0
   -1.1286    0.2442    0.0000 C   0  0  0  0  0  0  0  0  0  0  0  0
    0.2997    0.7025    0.0000 C   0  0  0  0  0  0  0  0  0  0  0  0
    1.4107   -0.3053    0.0000 C   0  0  0  0  0  0  0  0  0  0  0  0
    1.0935   -1.7713    0.0000 C   0  0  0  0  0  0  0  0  0  0  0  0
    2.2045   -2.7791    0.0000 C   0  0  0  0  0  0  0  0  0  0  0  0
    3.6328   -2.3208    0.0000 C   0  0  0  0  0  0  0  0  0  0  0  0
    3.9500   -0.8547    0.0000 C   0  0  0  0  0  0  0  0  0  0  0  0
    2.8390    0.1530    0.0000 C   0  0  0  0  0  0  0  0  0  0  0  0
    3.1562    1.6191    0.0000 Cl  0  0  0  0  0  0  0  0  0  0  0  0
    0.6169    2.1686    0.0000 C   0  0  0  0  0  0  0  0  0  0  0  0
    2.0452    2.6269    0.0000 Cl  0  0  0  0  0  0  0  0  0  0  0  0
   -0.4941    3.1763    0.0000 Cl  0  0  0  0  0  0  0  0  0  0  0  0
   -1.4458   -1.2219    0.0000 C   0  0  0  0  0  0  0  0  0  0  0  0
   -2.8741   -1.6802    0.0000 C   0  0  0  0  0  0  0  0  0  0  0  0
  1  2  1  0
  2  3  2  0
  3  4  1  0
  4  5  2  0
  5  6  1  0
  6  7  1  0
  7  8  2  0
  8  9  1  0
  9 10  2  0
 10 11  1  0
 11 12  2  0
 12 13  1  0
  6 14  1  0
 14 15  1  0
 14 16  1  0
  5 17  1  0
 17 18  2  0
 18  2  1  0
 12  7  1  0
M  END
> <Identifier>
4211.0

> <DILI>
0

$$$$

     RDKit          2D

 32 34  0  0  0  0  0  0  0  0999 V2000
    3.0000    1.9486    0.0000 O   0  0  0  0  0  0  0  0  0  0  0  0
    1.5000    1.9486    0.0000 C   0  0  0  0  0  0  0  0  0  0  0  0
    0.7500    3.2476    0.0000 C   0  0  0  0  0  0  0  0  0  0  0  0
    1.5000    4.5466    0.0000 C   0  0  0  0  0  0  0  0  0  0  0  0
    3.0000    4.5466    0.0000 O   0  0  0  0  0  0  0  0  0  0  0  0
    0.7500    5.8457    0.0000 C   0  0  0  0  0  0  0  0  0  0  0  0
   -0.7500    5.8457    0.0000 C   0  0  0  0  0  0  0  0  0  0  0  0
   -1.5000    4.5466    0.0000 C   0  0  0  0  0  0  0  0  0  0  0  0
   -3.0000    4.5466    0.0000 O   0  0  0  0  0  0  0  0  0  0  0  0
   -0.7500    3.2476    0.0000 C   0  0  0  0  0  0  0  0  0  0  0  0
   -1.5000    1.9486    0.0000 C   0  0  0  0  0  0  0  0  0  0  0  0
   -3.0000    1.9486    0.0000 O   0  0  0  0  0  0  0  0  0  0  0  0
   -0.7500    0.6495    0.0000 C   0  0  0  0  0  0  0  0  0  0  0  0
   -1.5000   -0.6495    0.0000 C   0  0  0  0  0  0  0  0  0  0  0  0
   -3.0000   -0.6495    0.0000 N   0  0  0  0  0  0  0  0  0  0  0  0
   -3.7500   -1.9486    0.0000 C   0  0  0  0  0  0  0  0  0  0  0  0
   -5.2500   -1.9486    0.0000 C   0  0  0  0  0  0  0  0  0  0  0  0
   -6.0000   -3.2476    0.0000 N   0  0  0  0  0  0  0  0  0  0  0  0
   -7.5000   -3.2476    0.0000 C   0  0  0  0  0  0  0  0  0  0  0  0
   -8.2500   -4.5466    0.0000 C   0  0  0  0  0  0  0  0  0  0  0  0
   -9.7500   -4.5466    0.0000 O   0  0  0  0  0  0  0  0  0  0  0  0
   -0.7500   -1.9486    0.0000 C   0  0  0  0  0  0  0  0  0  0  0  0
    0.7500   -1.9486    0.0000 C   0  0  0  0  0  0  0  0  0  0  0  0
    1.5000   -0.6495    0.0000 C   0  0  0  0  0  0  0  0  0  0  0  0
    3.0000   -0.6495    0.0000 N   0  0  0  0  0  0  0  0  0  0  0  0
    3.7500   -1.9486    0.0000 C   0  0  0  0  0  0  0  0  0  0  0  0
    5.2500   -1.9486    0.0000 C   0  0  0  0  0  0  0  0  0  0  0  0
    6.0000   -3.2476    0.0000 N   0  0  0  0  0  0  0  0  0  0  0  0
    7.5000   -3.2476    0.0000 C   0  0  0  0  0  0  0  0  0  0  0  0
    8.2500   -4.5466    0.0000 C   0  0  0  0  0  0  0  0  0  0  0  0
    9.7500   -4.5466    0.0000 O   0  0  0  0  0  0  0  0  0  0  0  0
    0.7500    0.6495    0.0000 C   0  0  0  0  0  0  0  0  0  0  0  0
  1  2  2  0
  2  3  1  0
  3  4  2  0
  4  5  1  0
  4  6  1  0
  6  7  2  0
  7  8  1  0
  8  9  1  0
  8 10  2  0
 10 11  1  0
 11 12  2  0
 11 13  1  0
 13 14  2  0
 14 15  1  0
 15 16  1  0
 16 17  1  0
 17 18  1  0
 18 19  1  0
 19 20  1  0
 20 21  1  0
 14 22  1  0
 22 23  2  0
 23 24  1  0
 24 25  1  0
 25 26  1  0
 26 27  1  0
 27 28  1  0
 28 29  1  0
 29 30  1  0
 30 31  1  0
 24 32  2  0
 32  2  1  0
 10  3  1  0
 32 13  1  0
M  END
> <Identifier>
4212.0

> <DILI>
1

$$$$

     RDKit          2D

 20 20  0  0  0  0  0  0  0  0999 V2000
   -6.2702   -1.0599    0.0000 C   0  0  0  0  0  0  0  0  0  0  0  0
   -4.8734   -0.5130    0.0000 C   0  0  0  0  0  0  0  0  0  0  0  0
   -4.6486    0.9701    0.0000 O   0  0  0  0  0  0  0  0  0  0  0  0
   -3.7014   -1.4492    0.0000 O   0  0  0  0  0  0  0  0  0  0  0  0
   -2.3047   -0.9023    0.0000 C   0  0  0  0  0  0  0  0  0  0  0  0
   -2.0799    0.5807    0.0000 C   0  0  0  0  0  0  0  0  0  0  0  0
   -0.6831    1.1276    0.0000 C   0  0  0  0  0  0  0  0  0  0  0  0
   -0.4583    2.6107    0.0000 C   0  0  0  0  0  0  0  0  0  0  0  0
    0.9384    3.1575    0.0000 C   0  0  0  0  0  0  0  0  0  0  0  0
   -1.6303    3.5469    0.0000 C   0  0  0  0  0  0  0  0  0  0  0  0
    0.4889    0.1914    0.0000 C   0  0  0  0  0  0  0  0  0  0  0  0
    1.8856    0.7383    0.0000 O   0  0  0  0  0  0  0  0  0  0  0  0
    3.0576   -0.1979    0.0000 C   0  0  0  0  0  0  0  0  0  0  0  0
    4.4544    0.3489    0.0000 C   0  0  0  0  0  0  0  0  0  0  0  0
    5.6263   -0.5873    0.0000 N   0  0  0  0  0  0  0  0  0  0  0  0
    7.0231   -0.0404    0.0000 C   0  0  0  0  0  0  0  0  0  0  0  0
    5.4016   -2.0703    0.0000 C   0  0  0  0  0  0  0  0  0  0  0  0
    0.2641   -1.2917    0.0000 C   0  0  0  0  0  0  0  0  0  0  0  0
   -1.1327   -1.8385    0.0000 C   0  0  0  0  0  0  0  0  0  0  0  0
   -1.3575   -3.3216    0.0000 C   0  0  0  0  0  0  0  0  0  0  0  0
  1  2  1  0
  2  3  2  0
  2  4  1  0
  4  5  1  0
  5  6  2  0
  6  7  1  0
  7  8  1  0
  8  9  1  0
  8 10  1  0
  7 11  2  0
 11 12  1  0
 12 13  1  0
 13 14  1  0
 14 15  1  0
 15 16  1  0
 15 17  1  0
 11 18  1  0
 18 19  2  0
 19 20  1  0
 19  5  1  0
M  END
> <Identifier>
4260.0

> <DILI>
1

$$$$

     RDKit          2D

 17 18  0  0  0  0  0  0  0  0999 V2000
   -0.4636    4.1154    0.0000 C   0  0  0  0  0  0  0  0  0  0  0  0
    0.5267    2.9888    0.0000 C   0  0  0  0  0  0  0  0  0  0  0  0
    0.0462    1.5678    0.0000 N   0  0  0  0  0  0  0  0  0  0  0  0
   -1.4246    1.2735    0.0000 C   0  0  0  0  0  0  0  0  0  0  0  0
   -1.9052   -0.1474    0.0000 C   0  0  0  0  0  0  0  0  0  0  0  0
   -3.3760   -0.4418    0.0000 C   0  0  0  0  0  0  0  0  0  0  0  0
   -3.8565   -1.8627    0.0000 O   0  0  0  0  0  0  0  0  0  0  0  0
   -4.3663    0.6849    0.0000 O   0  0  0  0  0  0  0  0  0  0  0  0
   -0.9149   -1.2741    0.0000 C   0  0  0  0  0  0  0  0  0  0  0  0
   -1.3954   -2.6950    0.0000 O   0  0  0  0  0  0  0  0  0  0  0  0
    0.5560   -0.9797    0.0000 C   0  0  0  0  0  0  0  0  0  0  0  0
    1.5463   -2.1064    0.0000 C   0  0  0  0  0  0  0  0  0  0  0  0
    3.0171   -1.8121    0.0000 C   0  0  0  0  0  0  0  0  0  0  0  0
    3.4977   -0.3911    0.0000 C   0  0  0  0  0  0  0  0  0  0  0  0
    4.9685   -0.0968    0.0000 C   0  0  0  0  0  0  0  0  0  0  0  0
    2.5074    0.7355    0.0000 N   0  0  0  0  0  0  0  0  0  0  0  0
    1.0365    0.4412    0.0000 C   0  0  0  0  0  0  0  0  0  0  0  0
  1  2  1  0
  2  3  1  0
  3  4  1  0
  4  5  2  0
  5  6  1  0
  6  7  2  0
  6  8  1  0
  5  9  1  0
  9 10  2  0
  9 11  1  0
 11 12  2  0
 12 13  1  0
 13 14  2  0
 14 15  1  0
 14 16  1  0
 16 17  2  0
 17  3  1  0
 17 11  1  0
M  END
> <Identifier>
4421.0

> <DILI>
1

$$$$

     RDKit          2D

 42 45  0  0  0  0  0  0  0  0999 V2000
    5.9453    3.1697    0.0000 N   0  0  0  0  0  0  0  0  0  0  0  0
    7.2035    2.3531    0.0000 C   0  0  0  0  0  0  0  0  0  0  0  0
    7.1255    0.8551    0.0000 C   0  0  0  0  0  0  0  0  0  0  0  0
    5.7892    0.1737    0.0000 O   0  0  0  0  0  0  0  0  0  0  0  0
    5.7111   -1.3242    0.0000 C   0  0  0  0  0  0  0  0  0  0  0  0
    4.3748   -2.0056    0.0000 O   0  0  0  0  0  0  0  0  0  0  0  0
    3.1166   -1.1890    0.0000 C   0  0  0  0  0  0  0  0  0  0  0  0
    3.0376    0.3089    0.0000 C   0  0  0  0  0  0  0  0  0  0  0  0
    4.2031    1.2532    0.0000 C   0  0  0  0  0  0  0  0  0  0  0  0
    3.9680    2.7347    0.0000 O   0  0  0  0  0  0  0  0  0  0  0  0
    1.5886    0.6967    0.0000 O   0  0  0  0  0  0  0  0  0  0  0  0
    0.7720   -0.5616    0.0000 C   0  0  0  0  0  0  0  0  0  0  0  0
   -0.7259   -0.6405    0.0000 O   0  0  0  0  0  0  0  0  0  0  0  0
   -1.5432    0.6172    0.0000 C   0  0  0  0  0  0  0  0  0  0  0  0
   -0.8626    1.9539    0.0000 C   0  0  0  0  0  0  0  0  0  0  0  0
    0.6353    2.0329    0.0000 O   0  0  0  0  0  0  0  0  0  0  0  0
   -1.6800    3.2117    0.0000 C   0  0  0  0  0  0  0  0  0  0  0  0
   -0.9994    4.5484    0.0000 N   0  0  0  0  0  0  0  0  0  0  0  0
   -3.1779    3.1328    0.0000 C   0  0  0  0  0  0  0  0  0  0  0  0
   -3.8585    1.7960    0.0000 C   0  0  0  0  0  0  0  0  0  0  0  0
   -5.3564    1.7171    0.0000 N   0  0  0  0  0  0  0  0  0  0  0  0
   -3.0411    0.5383    0.0000 C   0  0  0  0  0  0  0  0  0  0  0  0
   -3.7217   -0.7984    0.0000 O   0  0  0  0  0  0  0  0  0  0  0  0
   -5.2196   -0.8774    0.0000 C   0  0  0  0  0  0  0  0  0  0  0  0
   -6.0370    0.3804    0.0000 O   0  0  0  0  0  0  0  0  0  0  0  0
   -7.5349    0.3014    0.0000 C   0  0  0  0  0  0  0  0  0  0  0  0
   -8.3522    1.5592    0.0000 C   0  0  0  0  0  0  0  0  0  0  0  0
   -9.8502    1.4802    0.0000 N   0  0  0  0  0  0  0  0  0  0  0  0
   -8.2155   -1.0353    0.0000 C   0  0  0  0  0  0  0  0  0  0  0  0
   -9.7134   -1.1143    0.0000 O   0  0  0  0  0  0  0  0  0  0  0  0
   -7.3982   -2.2931    0.0000 C   0  0  0  0  0  0  0  0  0  0  0  0
   -8.0787   -3.6298    0.0000 O   0  0  0  0  0  0  0  0  0  0  0  0
   -5.9002   -2.2141    0.0000 C   0  0  0  0  0  0  0  0  0  0  0  0
   -5.0829   -3.4719    0.0000 N   0  0  0  0  0  0  0  0  0  0  0  0
    1.7164   -1.7270    0.0000 C   0  0  0  0  0  0  0  0  0  0  0  0
    1.3286   -3.1760    0.0000 O   0  0  0  0  0  0  0  0  0  0  0  0
    6.9694   -2.1408    0.0000 C   0  0  0  0  0  0  0  0  0  0  0  0
    6.8913   -3.6388    0.0000 N   0  0  0  0  0  0  0  0  0  0  0  0
    8.3057   -1.4594    0.0000 C   0  0  0  0  0  0  0  0  0  0  0  0
    9.5639   -2.2760    0.0000 O   0  0  0  0  0  0  0  0  0  0  0  0
    8.3837    0.0386    0.0000 C   0  0  0  0  0  0  0  0  0  0  0  0
    9.7200    0.7199    0.0000 O   0  0  0  0  0  0  0  0  0  0  0  0
  1  2  1  0
  2  3  1  0
  3  4  1  0
  4  5  1  0
  5  6  1  0
  6  7  1  0
  7  8  1  0
  8  9  1  0
  9 10  1  0
  8 11  1  0
 11 12  1  0
 12 13  1  0
 13 14  1  0
 14 15  1  0
 15 16  1  0
 15 17  1  0
 17 18  1  0
 17 19  1  0
 19 20  1  0
 20 21  1  0
 20 22  1  0
 22 23  1  0
 23 24  1  0
 24 25  1  0
 25 26  1  0
 26 27  1  0
 27 28  1  0
 26 29  1  0
 29 30  1  0
 29 31  1  0
 31 32  1  0
 31 33  1  0
 33 34  1  0
 12 35  1  0
 35 36  1  0
  5 37  1  0
 37 38  1  0
 37 39  1  0
 39 40  1  0
 39 41  1  0
 41 42  1  0
 41  3  1  0
 35  7  1  0
 22 14  1  0
 33 24  1  0
M  END
> <Identifier>
4454.0

> <DILI>
0

$$$$

     RDKit          2D

 20 23  0  0  0  0  0  0  0  0999 V2000
   -3.6969   -2.5077    0.0000 C   0  0  0  0  0  0  0  0  0  0  0  0
   -3.1808   -1.0994    0.0000 C   0  0  0  0  0  0  0  0  0  0  0  0
   -4.1423    0.0519    0.0000 C   0  0  0  0  0  0  0  0  0  0  0  0
   -3.6261    1.4603    0.0000 C   0  0  0  0  0  0  0  0  0  0  0  0
   -2.1484    1.7174    0.0000 N   0  0  0  0  0  0  0  0  0  0  0  0
   -1.1868    0.5662    0.0000 C   0  0  0  0  0  0  0  0  0  0  0  0
   -1.7030   -0.8422    0.0000 C   0  0  0  0  0  0  0  0  0  0  0  0
   -0.9237   -2.1239    0.0000 N   0  0  0  0  0  0  0  0  0  0  0  0
    0.5643   -2.3138    0.0000 C   0  0  0  0  0  0  0  0  0  0  0  0
    1.0388   -3.7367    0.0000 O   0  0  0  0  0  0  0  0  0  0  0  0
    1.6404   -1.2688    0.0000 C   0  0  0  0  0  0  0  0  0  0  0  0
    3.0063   -1.8888    0.0000 C   0  0  0  0  0  0  0  0  0  0  0  0
    4.2261   -1.0160    0.0000 C   0  0  0  0  0  0  0  0  0  0  0  0
    4.0802    0.4769    0.0000 C   0  0  0  0  0  0  0  0  0  0  0  0
    2.7143    1.0969    0.0000 N   0  0  0  0  0  0  0  0  0  0  0  0
    1.4944    0.2240    0.0000 C   0  0  0  0  0  0  0  0  0  0  0  0
    0.2362    1.0407    0.0000 N   0  0  0  0  0  0  0  0  0  0  0  0
    0.4261    2.5286    0.0000 C   0  0  0  0  0  0  0  0  0  0  0  0
   -0.1535    3.9122    0.0000 C   0  0  0  0  0  0  0  0  0  0  0  0
    1.3345    3.7223    0.0000 C   0  0  0  0  0  0  0  0  0  0  0  0
  1  2  1  0
  2  3  2  0
  3  4  1  0
  4  5  2  0
  5  6  1  0
  6  7  2  0
  7  8  1  0
  8  9  1  0
  9 10  2  0
  9 11  1  0
 11 12  2  0
 12 13  1  0
 13 14  2  0
 14 15  1  0
 15 16  2  0
 16 17  1  0
 17 18  1  0
 18 19  1  0
 19 20  1  0
  7  2  1  0
 16 11  1  0
 20 18  1  0
 17  6  1  0
M  END
> <Identifier>
4463.0

> <DILI>
1

$$$$

     RDKit          2D

 22 23  0  0  0  0  0  0  0  0999 V2000
   -1.8314    2.1054    0.0000 O   0  0  0  0  0  0  0  0  0  0  0  0
   -2.0081    0.6158    0.0000 C   0  0  0  0  0  0  0  0  0  0  0  0
   -0.8064   -0.2820    0.0000 C   0  0  0  0  0  0  0  0  0  0  0  0
    0.5719    0.3098    0.0000 C   0  0  0  0  0  0  0  0  0  0  0  0
    1.7735   -0.5880    0.0000 N   0  0  0  0  0  0  0  0  0  0  0  0
    3.1519    0.0037    0.0000 N   0  0  0  0  0  0  0  0  0  0  0  0
    4.3535   -0.8941    0.0000 C   0  0  0  0  0  0  0  0  0  0  0  0
    4.1768   -2.3836    0.0000 O   0  0  0  0  0  0  0  0  0  0  0  0
    5.7319   -0.3023    0.0000 C   0  0  0  0  0  0  0  0  0  0  0  0
    6.9335   -1.2001    0.0000 C   0  0  0  0  0  0  0  0  0  0  0  0
    8.3119   -0.6083    0.0000 C   0  0  0  0  0  0  0  0  0  0  0  0
    8.4886    0.8812    0.0000 N   0  0  0  0  0  0  0  0  0  0  0  0
    7.2869    1.7790    0.0000 C   0  0  0  0  0  0  0  0  0  0  0  0
    5.9086    1.1873    0.0000 C   0  0  0  0  0  0  0  0  0  0  0  0
   -3.3864    0.0241    0.0000 N   0  0  0  0  0  0  0  0  0  0  0  0
   -4.5881    0.9219    0.0000 C   0  0  0  0  0  0  0  0  0  0  0  0
   -5.9664    0.3301    0.0000 C   0  0  0  0  0  0  0  0  0  0  0  0
   -7.1681    1.2279    0.0000 C   0  0  0  0  0  0  0  0  0  0  0  0
   -8.5464    0.6362    0.0000 C   0  0  0  0  0  0  0  0  0  0  0  0
   -8.7231   -0.8534    0.0000 C   0  0  0  0  0  0  0  0  0  0  0  0
   -7.5215   -1.7512    0.0000 C   0  0  0  0  0  0  0  0  0  0  0  0
   -6.1431   -1.1594    0.0000 C   0  0  0  0  0  0  0  0  0  0  0  0
  1  2  2  0
  2  3  1  0
  3  4  1  0
  4  5  1  0
  5  6  1  0
  6  7  1  0
  7  8  2  0
  7  9  1  0
  9 10  2  0
 10 11  1  0
 11 12  2  0
 12 13  1  0
 13 14  2  0
  2 15  1  0
 15 16  1  0
 16 17  1  0
 17 18  2  0
 18 19  1  0
 19 20  2  0
 20 21  1  0
 21 22  2  0
 14  9  1  0
 22 17  1  0
M  END
> <Identifier>
4472.0

> <DILI>
1

$$$$

     RDKit          2D

 35 37  0  0  0  0  0  0  0  0999 V2000
   -8.1736   -0.6026    0.0000 C   0  0  0  0  0  0  0  0  0  0  0  0
   -7.0515    0.3928    0.0000 O   0  0  0  0  0  0  0  0  0  0  0  0
   -5.6284   -0.0812    0.0000 C   0  0  0  0  0  0  0  0  0  0  0  0
   -5.3274   -1.5507    0.0000 O   0  0  0  0  0  0  0  0  0  0  0  0
   -4.5063    0.9142    0.0000 C   0  0  0  0  0  0  0  0  0  0  0  0
   -4.8073    2.3837    0.0000 C   0  0  0  0  0  0  0  0  0  0  0  0
   -6.2305    2.8578    0.0000 C   0  0  0  0  0  0  0  0  0  0  0  0
   -3.6852    3.3792    0.0000 N   0  0  0  0  0  0  0  0  0  0  0  0
   -2.2621    2.9051    0.0000 C   0  0  0  0  0  0  0  0  0  0  0  0
   -1.1400    3.9006    0.0000 C   0  0  0  0  0  0  0  0  0  0  0  0
   -1.9611    1.4356    0.0000 C   0  0  0  0  0  0  0  0  0  0  0  0
   -0.5380    0.9616    0.0000 C   0  0  0  0  0  0  0  0  0  0  0  0
   -0.2369   -0.5079    0.0000 O   0  0  0  0  0  0  0  0  0  0  0  0
    0.5841    1.9570    0.0000 O   0  0  0  0  0  0  0  0  0  0  0  0
    2.0073    1.4830    0.0000 C   0  0  0  0  0  0  0  0  0  0  0  0
    3.1293    2.4784    0.0000 C   0  0  0  0  0  0  0  0  0  0  0  0
    4.5525    2.0044    0.0000 N   0  0  0  0  0  0  0  0  0  0  0  0
    5.6746    2.9999    0.0000 C   0  0  0  0  0  0  0  0  0  0  0  0
    4.8535    0.5349    0.0000 C   0  0  0  0  0  0  0  0  0  0  0  0
    6.2766    0.0609    0.0000 C   0  0  0  0  0  0  0  0  0  0  0  0
    6.5777   -1.4086    0.0000 C   0  0  0  0  0  0  0  0  0  0  0  0
    8.0008   -1.8826    0.0000 C   0  0  0  0  0  0  0  0  0  0  0  0
    9.1229   -0.8872    0.0000 C   0  0  0  0  0  0  0  0  0  0  0  0
    8.8218    0.5823    0.0000 C   0  0  0  0  0  0  0  0  0  0  0  0
    7.3987    1.0563    0.0000 C   0  0  0  0  0  0  0  0  0  0  0  0
   -3.0832    0.4402    0.0000 C   0  0  0  0  0  0  0  0  0  0  0  0
   -2.7822   -1.0293    0.0000 C   0  0  0  0  0  0  0  0  0  0  0  0
   -3.9042   -2.0247    0.0000 C   0  0  0  0  0  0  0  0  0  0  0  0
   -3.6032   -3.4942    0.0000 C   0  0  0  0  0  0  0  0  0  0  0  0
   -2.1801   -3.9683    0.0000 C   0  0  0  0  0  0  0  0  0  0  0  0
   -1.0580   -2.9728    0.0000 C   0  0  0  0  0  0  0  0  0  0  0  0
    0.3651   -3.4468    0.0000 N   0  0  0  0  0  4  0  0  0  0  0  0
    1.4872   -2.4514    0.0000 O   0  0  0  0  0  0  0  0  0  0  0  0
    0.6662   -4.9163    0.0000 O   0  0  0  0  0  1  0  0  0  0  0  0
   -1.3590   -1.5033    0.0000 C   0  0  0  0  0  0  0  0  0  0  0  0
  1  2  1  0
  2  3  1  0
  3  4  2  0
  3  5  1  0
  5  6  2  0
  6  7  1  0
  6  8  1  0
  8  9  1  0
  9 10  1  0
  9 11  2  0
 11 12  1  0
 12 13  2  0
 12 14  1  0
 14 15  1  0
 15 16  1  0
 16 17  1  0
 17 18  1  0
 17 19  1  0
 19 20  1  0
 20 21  2  0
 21 22  1  0
 22 23  2  0
 23 24  1  0
 24 25  2  0
 11 26  1  0
 26 27  1  0
 27 28  2  0
 28 29  1  0
 29 30  2  0
 30 31  1  0
 31 32  1  0
 32 33  2  0
 32 34  1  0
 31 35  2  0
 26  5  1  0
 35 27  1  0
 25 20  1  0
M  CHG  2  32   1  34  -1
M  END
> <Identifier>
4474.0

> <DILI>
1

$$$$

     RDKit          2D

 25 26  0  0  0  0  0  0  0  0999 V2000
   -5.5717   -0.4564    0.0000 C   0  0  0  0  0  0  0  0  0  0  0  0
   -4.3862    0.4627    0.0000 O   0  0  0  0  0  0  0  0  0  0  0  0
   -2.9975   -0.1044    0.0000 C   0  0  0  0  0  0  0  0  0  0  0  0
   -2.7943   -1.5905    0.0000 O   0  0  0  0  0  0  0  0  0  0  0  0
   -1.8121    0.8147    0.0000 C   0  0  0  0  0  0  0  0  0  0  0  0
   -2.0153    2.3009    0.0000 C   0  0  0  0  0  0  0  0  0  0  0  0
   -3.4040    2.8680    0.0000 C   0  0  0  0  0  0  0  0  0  0  0  0
   -0.8299    3.2200    0.0000 N   0  0  0  0  0  0  0  0  0  0  0  0
    0.5588    2.6529    0.0000 C   0  0  0  0  0  0  0  0  0  0  0  0
    1.7442    3.5720    0.0000 C   0  0  0  0  0  0  0  0  0  0  0  0
    0.7620    1.1667    0.0000 C   0  0  0  0  0  0  0  0  0  0  0  0
    2.1507    0.5996    0.0000 C   0  0  0  0  0  0  0  0  0  0  0  0
    2.4466   -0.1406    0.0000 O   0  0  0  0  0  0  0  0  0  0  0  0
    3.3361    1.5187    0.0000 O   0  0  0  0  0  0  0  0  0  0  0  0
    4.7248    0.9517    0.0000 C   0  0  0  0  0  0  0  0  0  0  0  0
   -0.4234    0.2476    0.0000 C   0  0  0  0  0  0  0  0  0  0  0  0
   -0.2202   -1.2385    0.0000 C   0  0  0  0  0  0  0  0  0  0  0  0
   -1.4056   -2.1576    0.0000 C   0  0  0  0  0  0  0  0  0  0  0  0
   -1.2024   -3.6438    0.0000 C   0  0  0  0  0  0  0  0  0  0  0  0
    0.1863   -4.2109    0.0000 C   0  0  0  0  0  0  0  0  0  0  0  0
    1.3717   -3.2918    0.0000 C   0  0  0  0  0  0  0  0  0  0  0  0
    1.1685   -1.8056    0.0000 C   0  0  0  0  0  0  0  0  0  0  0  0
    2.3539   -0.8865    0.0000 N   0  0  0  0  0  4  0  0  0  0  0  0
    2.5164    0.6047    0.0000 O   0  0  0  0  0  0  0  0  0  0  0  0
    3.7426   -1.4536    0.0000 O   0  0  0  0  0  1  0  0  0  0  0  0
  1  2  1  0
  2  3  1  0
  3  4  2  0
  3  5  1  0
  5  6  2  0
  6  7  1  0
  6  8  1  0
  8  9  1  0
  9 10  1  0
  9 11  2  0
 11 12  1  0
 12 13  2  0
 12 14  1  0
 14 15  1  0
 11 16  1  0
 16 17  1  0
 17 18  2  0
 18 19  1  0
 19 20  2  0
 20 21  1  0
 21 22  2  0
 22 23  1  0
 23 24  2  0
 23 25  1  0
 16  5  1  0
 22 17  1  0
M  CHG  2  23   1  25  -1
M  END
> <Identifier>
4485.0

> <DILI>
1

$$$$

     RDKit          2D

 22 23  0  0  0  0  0  0  0  0999 V2000
   -5.7145    0.5120    0.0000 C   0  0  0  0  0  0  0  0  0  0  0  0
   -4.2145    0.5178    0.0000 C   0  0  0  0  0  0  0  0  0  0  0  0
   -4.3771    2.0090    0.0000 C   0  0  0  0  0  0  0  0  0  0  0  0
   -4.3656   -0.9746    0.0000 N   0  0  0  0  0  0  0  0  0  0  0  0
   -2.9929   -1.5794    0.0000 C   0  0  0  0  0  0  0  0  0  0  0  0
   -2.6754   -3.0454    0.0000 O   0  0  0  0  0  0  0  0  0  0  0  0
   -1.9935   -0.4608    0.0000 N   0  0  0  0  0  0  0  0  0  0  0  0
   -0.5011   -0.6118    0.0000 C   0  0  0  0  0  0  0  0  0  0  0  0
    0.1143   -1.9798    0.0000 C   0  0  0  0  0  0  0  0  0  0  0  0
    1.6066   -2.1308    0.0000 C   0  0  0  0  0  0  0  0  0  0  0  0
    2.4836   -0.9139    0.0000 C   0  0  0  0  0  0  0  0  0  0  0  0
    3.9760   -1.0649    0.0000 N   0  0  0  0  0  4  0  0  0  0  0  0
    4.8530    0.1520    0.0000 O   0  0  0  0  0  0  0  0  0  0  0  0
    4.5914   -2.4329    0.0000 O   0  0  0  0  0  1  0  0  0  0  0  0
    1.8682    0.4541    0.0000 C   0  0  0  0  0  0  0  0  0  0  0  0
    2.7452    1.6710    0.0000 C   0  0  0  0  0  0  0  0  0  0  0  0
    3.6222    2.8879    0.0000 F   0  0  0  0  0  0  0  0  0  0  0  0
    3.9621    0.7940    0.0000 F   0  0  0  0  0  0  0  0  0  0  0  0
    1.5283    2.5480    0.0000 F   0  0  0  0  0  0  0  0  0  0  0  0
    0.3759    0.6051    0.0000 C   0  0  0  0  0  0  0  0  0  0  0  0
   -2.7485    0.8354    0.0000 C   0  0  0  0  0  0  0  0  0  0  0  0
   -2.1437    2.2080    0.0000 O   0  0  0  0  0  0  0  0  0  0  0  0
  1  2  1  0
  2  3  1  0
  2  4  1  0
  4  5  1  0
  5  6  2  0
  5  7  1  0
  7  8  1  0
  8  9  2  0
  9 10  1  0
 10 11  2  0
 11 12  1  0
 12 13  2  0
 12 14  1  0
 11 15  1  0
 15 16  1  0
 16 17  1  0
 16 18  1  0
 16 19  1  0
 15 20  2  0
  7 21  1  0
 21 22  2  0
 21  2  1  0
 20  8  1  0
M  CHG  2  12   1  14  -1
M  END
> <Identifier>
4493.0

> <DILI>
1

$$$$

     RDKit          2D

 21 22  0  0  0  0  0  0  0  0999 V2000
   -5.3778   -1.5981    0.0000 C   0  0  0  0  0  0  0  0  0  0  0  0
   -3.8778   -1.5838    0.0000 S   0  0  0  0  0  0  0  0  0  0  0  0
   -3.8922   -0.0838    0.0000 O   0  0  0  0  0  0  0  0  0  0  0  0
   -3.8634   -3.0837    0.0000 O   0  0  0  0  0  0  0  0  0  0  0  0
   -2.3779   -1.5694    0.0000 N   0  0  0  0  0  0  0  0  0  0  0  0
   -1.6404   -0.2632    0.0000 C   0  0  0  0  0  0  0  0  0  0  0  0
   -2.4028    1.0286    0.0000 C   0  0  0  0  0  0  0  0  0  0  0  0
   -1.6653    2.3348    0.0000 C   0  0  0  0  0  0  0  0  0  0  0  0
   -0.1654    2.3492    0.0000 C   0  0  0  0  0  0  0  0  0  0  0  0
    0.5721    3.6553    0.0000 N   0  0  0  0  0  4  0  0  0  0  0  0
   -0.1903    4.9471    0.0000 O   0  0  0  0  0  0  0  0  0  0  0  0
    2.0720    3.6697    0.0000 O   0  0  0  0  0  1  0  0  0  0  0  0
    0.5970    1.0574    0.0000 C   0  0  0  0  0  0  0  0  0  0  0  0
   -0.1405   -0.2488    0.0000 C   0  0  0  0  0  0  0  0  0  0  0  0
    0.6220   -1.5406    0.0000 O   0  0  0  0  0  0  0  0  0  0  0  0
    2.1219   -1.5262    0.0000 C   0  0  0  0  0  0  0  0  0  0  0  0
    2.8843   -2.8180    0.0000 C   0  0  0  0  0  0  0  0  0  0  0  0
    4.3842   -2.8036    0.0000 C   0  0  0  0  0  0  0  0  0  0  0  0
    5.1217   -1.4974    0.0000 C   0  0  0  0  0  0  0  0  0  0  0  0
    4.3593   -0.2056    0.0000 C   0  0  0  0  0  0  0  0  0  0  0  0
    2.8594   -0.2200    0.0000 C   0  0  0  0  0  0  0  0  0  0  0  0
  1  2  1  0
  2  3  2  0
  2  4  2  0
  2  5  1  0
  5  6  1  0
  6  7  2  0
  7  8  1  0
  8  9  2  0
  9 10  1  0
 10 11  2  0
 10 12  1  0
  9 13  1  0
 13 14  2  0
 14 15  1  0
 15 16  1  0
 16 17  2  0
 17 18  1  0
 18 19  2  0
 19 20  1  0
 20 21  2  0
 14  6  1  0
 21 16  1  0
M  CHG  2  10   1  12  -1
M  END
> <Identifier>
4495.0

> <DILI>
1

$$$$

     RDKit          2D

 30 31  0  0  0  0  0  0  0  0999 V2000
   -9.0875   -0.6002    0.0000 C   0  0  0  0  0  0  0  0  0  0  0  0
   -7.6585   -1.0562    0.0000 O   0  0  0  0  0  0  0  0  0  0  0  0
   -6.5491   -0.0466    0.0000 C   0  0  0  0  0  0  0  0  0  0  0  0
   -5.1200   -0.5026    0.0000 C   0  0  0  0  0  0  0  0  0  0  0  0
   -4.0107    0.5070    0.0000 O   0  0  0  0  0  0  0  0  0  0  0  0
   -2.5816    0.0510    0.0000 C   0  0  0  0  0  0  0  0  0  0  0  0
   -2.2620   -1.4145    0.0000 O   0  0  0  0  0  0  0  0  0  0  0  0
   -1.4723    1.0606    0.0000 C   0  0  0  0  0  0  0  0  0  0  0  0
   -1.7919    2.5262    0.0000 C   0  0  0  0  0  0  0  0  0  0  0  0
   -3.2209    2.9821    0.0000 C   0  0  0  0  0  0  0  0  0  0  0  0
   -0.6825    3.5358    0.0000 N   0  0  0  0  0  0  0  0  0  0  0  0
    0.7465    3.0798    0.0000 C   0  0  0  0  0  0  0  0  0  0  0  0
    1.8559    4.0894    0.0000 C   0  0  0  0  0  0  0  0  0  0  0  0
    1.0661    1.6143    0.0000 C   0  0  0  0  0  0  0  0  0  0  0  0
    2.4952    1.1583    0.0000 C   0  0  0  0  0  0  0  0  0  0  0  0
    2.8148   -0.3072    0.0000 O   0  0  0  0  0  0  0  0  0  0  0  0
    3.6045    2.1679    0.0000 O   0  0  0  0  0  0  0  0  0  0  0  0
    5.0336    1.7119    0.0000 C   0  0  0  0  0  0  0  0  0  0  0  0
    6.1430    2.7215    0.0000 C   0  0  0  0  0  0  0  0  0  0  0  0
    5.3532    0.2464    0.0000 C   0  0  0  0  0  0  0  0  0  0  0  0
   -0.0432    0.6047    0.0000 C   0  0  0  0  0  0  0  0  0  0  0  0
    0.2764   -0.8609    0.0000 C   0  0  0  0  0  0  0  0  0  0  0  0
   -0.8330   -1.8705    0.0000 C   0  0  0  0  0  0  0  0  0  0  0  0
   -0.5134   -3.3360    0.0000 C   0  0  0  0  0  0  0  0  0  0  0  0
    0.9157   -3.7920    0.0000 C   0  0  0  0  0  0  0  0  0  0  0  0
    2.0251   -2.7824    0.0000 C   0  0  0  0  0  0  0  0  0  0  0  0
    3.4541   -3.2383    0.0000 N   0  0  0  0  0  4  0  0  0  0  0  0
    4.5635   -2.2288    0.0000 O   0  0  0  0  0  0  0  0  0  0  0  0
    3.7737   -4.7039    0.0000 O   0  0  0  0  0  1  0  0  0  0  0  0
    1.7054   -1.3168    0.0000 C   0  0  0  0  0  0  0  0  0  0  0  0
  1  2  1  0
  2  3  1  0
  3  4  1  0
  4  5  1  0
  5  6  1  0
  6  7  2  0
  6  8  1  0
  8  9  2  0
  9 10  1  0
  9 11  1  0
 11 12  1  0
 12 13  1  0
 12 14  2  0
 14 15  1  0
 15 16  2  0
 15 17  1  0
 17 18  1  0
 18 19  1  0
 18 20  1  0
 14 21  1  0
 21 22  1  0
 22 23  2  0
 23 24  1  0
 24 25  2  0
 25 26  1  0
 26 27  1  0
 27 28  2  0
 27 29  1  0
 26 30  2  0
 21  8  1  0
 30 22  1  0
M  CHG  2  27   1  29  -1
M  END
> <Identifier>
4497.0

> <DILI>
1

$$$$

     RDKit          2D

 18 20  0  0  0  0  0  0  0  0999 V2000
    1.6974   -3.9626    0.0000 C   0  0  0  0  0  0  0  0  0  0  0  0
    1.3459   -2.5044    0.0000 N   0  0  0  0  0  0  0  0  0  0  0  0
    2.4331   -1.4709    0.0000 C   0  0  0  0  0  0  0  0  0  0  0  0
    2.0816   -0.0126    0.0000 C   0  0  0  0  0  0  0  0  0  0  0  0
    3.1688    1.0209    0.0000 C   0  0  0  0  0  0  0  0  0  0  0  0
    4.6074    0.5961    0.0000 N   0  0  0  0  0  0  0  0  0  0  0  0
    2.8173    2.4791    0.0000 C   0  0  0  0  0  0  0  0  0  0  0  0
    1.3787    2.9039    0.0000 C   0  0  0  0  0  0  0  0  0  0  0  0
    0.2916    1.8704    0.0000 C   0  0  0  0  0  0  0  0  0  0  0  0
    0.6430    0.4121    0.0000 C   0  0  0  0  0  0  0  0  0  0  0  0
   -0.4441   -0.6214    0.0000 C   0  0  0  0  0  0  0  0  0  0  0  0
   -1.8827   -0.1966    0.0000 C   0  0  0  0  0  0  0  0  0  0  0  0
   -2.2342    1.2616    0.0000 C   0  0  0  0  0  0  0  0  0  0  0  0
   -3.6728    1.6864    0.0000 C   0  0  0  0  0  0  0  0  0  0  0  0
   -4.7599    0.6529    0.0000 C   0  0  0  0  0  0  0  0  0  0  0  0
   -4.4085   -0.8053    0.0000 C   0  0  0  0  0  0  0  0  0  0  0  0
   -2.9699   -1.2301    0.0000 C   0  0  0  0  0  0  0  0  0  0  0  0
   -0.0927   -2.0796    0.0000 C   0  0  0  0  0  0  0  0  0  0  0  0
  1  2  1  0
  2  3  1  0
  3  4  1  0
  4  5  2  0
  5  6  1  0
  5  7  1  0
  7  8  2  0
  8  9  1  0
  9 10  2  0
 10 11  1  0
 11 12  1  0
 12 13  2  0
 13 14  1  0
 14 15  2  0
 15 16  1  0
 16 17  2  0
 11 18  1  0
 18  2  1  0
 10  4  1  0
 17 12  1  0
M  END
> <Identifier>
4528.0

> <DILI>
1

$$$$

     RDKit          2D

 23 25  0  0  0  0  0  0  0  0999 V2000
   -2.1191    4.1786    0.0000 C   0  0  0  0  0  0  0  0  0  0  0  0
   -1.1241    3.0561    0.0000 C   0  0  0  0  0  0  0  0  0  0  0  0
   -1.5987    1.6332    0.0000 N   0  0  0  0  0  0  0  0  0  0  0  0
   -3.0683    1.3327    0.0000 C   0  0  0  0  0  0  0  0  0  0  0  0
   -3.5429   -0.0902    0.0000 C   0  0  0  0  0  0  0  0  0  0  0  0
   -5.0125   -0.3907    0.0000 C   0  0  0  0  0  0  0  0  0  0  0  0
   -5.4871   -1.8136    0.0000 O   0  0  0  0  0  0  0  0  0  0  0  0
   -6.0075    0.7318    0.0000 O   0  0  0  0  0  0  0  0  0  0  0  0
   -2.5479   -1.2127    0.0000 C   0  0  0  0  0  0  0  0  0  0  0  0
   -3.0225   -2.6356    0.0000 O   0  0  0  0  0  0  0  0  0  0  0  0
   -1.0783   -0.9122    0.0000 C   0  0  0  0  0  0  0  0  0  0  0  0
   -0.0833   -2.0347    0.0000 C   0  0  0  0  0  0  0  0  0  0  0  0
    1.3863   -1.7343    0.0000 C   0  0  0  0  0  0  0  0  0  0  0  0
    2.3814   -2.8567    0.0000 F   0  0  0  0  0  0  0  0  0  0  0  0
    1.8609   -0.3113    0.0000 C   0  0  0  0  0  0  0  0  0  0  0  0
    3.3305   -0.0109    0.0000 N   0  0  0  0  0  0  0  0  0  0  0  0
    4.3255   -1.1333    0.0000 C   0  0  0  0  0  0  0  0  0  0  0  0
    5.7951   -0.8329    0.0000 C   0  0  0  0  0  0  0  0  0  0  0  0
    6.2697    0.5901    0.0000 N   0  0  0  0  0  0  0  0  0  0  0  0
    5.2747    1.7125    0.0000 C   0  0  0  0  0  0  0  0  0  0  0  0
    3.8051    1.4121    0.0000 C   0  0  0  0  0  0  0  0  0  0  0  0
    0.8659    0.8112    0.0000 C   0  0  0  0  0  0  0  0  0  0  0  0
   -0.6037    0.5107    0.0000 C   0  0  0  0  0  0  0  0  0  0  0  0
  1  2  1  0
  2  3  1  0
  3  4  1  0
  4  5  2  0
  5  6  1  0
  6  7  2  0
  6  8  1  0
  5  9  1  0
  9 10  2  0
  9 11  1  0
 11 12  2  0
 12 13  1  0
 13 14  1  0
 13 15  2  0
 15 16  1  0
 16 17  1  0
 17 18  1  0
 18 19  1  0
 19 20  1  0
 20 21  1  0
 15 22  1  0
 22 23  2  0
 23  3  1  0
 23 11  1  0
 21 16  1  0
M  END
> <Identifier>
4539.0

> <DILI>
1

$$$$

     RDKit          2D

 20 21  0  0  0  0  0  0  0  0999 V2000
   -1.2155   -3.0616    0.0000 C   0  0  0  0  0  0  0  0  0  0  0  0
   -2.2996   -2.0249    0.0000 C   0  0  0  0  0  0  0  0  0  0  0  0
   -3.7394   -2.4454    0.0000 C   0  0  0  0  0  0  0  0  0  0  0  0
   -4.8235   -1.4087    0.0000 C   0  0  0  0  0  0  0  0  0  0  0  0
   -4.4677    0.0485    0.0000 C   0  0  0  0  0  0  0  0  0  0  0  0
   -3.0279    0.4690    0.0000 C   0  0  0  0  0  0  0  0  0  0  0  0
   -1.9438   -0.5677    0.0000 C   0  0  0  0  0  0  0  0  0  0  0  0
   -0.5039   -0.1472    0.0000 C   0  0  0  0  0  0  0  0  0  0  0  0
    0.5801   -1.1839    0.0000 O   0  0  0  0  0  0  0  0  0  0  0  0
    2.0200   -0.7634    0.0000 C   0  0  0  0  0  0  0  0  0  0  0  0
    3.1041   -1.8001    0.0000 C   0  0  0  0  0  0  0  0  0  0  0  0
    4.5439   -1.3796    0.0000 N   0  0  0  0  0  0  0  0  0  0  0  0
    5.6280   -2.4163    0.0000 C   0  0  0  0  0  0  0  0  0  0  0  0
    4.8997    0.0776    0.0000 C   0  0  0  0  0  0  0  0  0  0  0  0
   -0.1482    1.3100    0.0000 C   0  0  0  0  0  0  0  0  0  0  0  0
    1.2917    1.7305    0.0000 C   0  0  0  0  0  0  0  0  0  0  0  0
    1.6474    3.1877    0.0000 C   0  0  0  0  0  0  0  0  0  0  0  0
    0.5633    4.2244    0.0000 C   0  0  0  0  0  0  0  0  0  0  0  0
   -0.8765    3.8039    0.0000 C   0  0  0  0  0  0  0  0  0  0  0  0
   -1.2323    2.3467    0.0000 C   0  0  0  0  0  0  0  0  0  0  0  0
  1  2  1  0
  2  3  2  0
  3  4  1  0
  4  5  2  0
  5  6  1  0
  6  7  2  0
  7  8  1  0
  8  9  1  0
  9 10  1  0
 10 11  1  0
 11 12  1  0
 12 13  1  0
 12 14  1  0
  8 15  1  0
 15 16  2  0
 16 17  1  0
 17 18  2  0
 18 19  1  0
 19 20  2  0
  7  2  1  0
 20 15  1  0
M  END
> <Identifier>
4601.0

> <DILI>
0

$$$$

     RDKit          2D

 22 24  0  0  0  0  0  0  0  0999 V2000
   -6.4631   -1.4652    0.0000 O   0  0  0  0  0  0  0  0  0  0  0  0
   -5.9681   -0.0492    0.0000 C   0  0  0  0  0  0  0  0  0  0  0  0
   -6.9468    1.0874    0.0000 O   0  0  0  0  0  0  0  0  0  0  0  0
   -4.4943    0.2301    0.0000 C   0  0  0  0  0  0  0  0  0  0  0  0
   -3.5156   -0.9066    0.0000 C   0  0  0  0  0  0  0  0  0  0  0  0
   -2.0418   -0.6273    0.0000 C   0  0  0  0  0  0  0  0  0  0  0  0
   -0.9496   -1.6555    0.0000 N   0  0  0  0  0  0  0  0  0  0  0  0
    0.3658   -0.9344    0.0000 C   0  0  0  0  0  0  0  0  0  0  0  0
    1.7222   -1.5747    0.0000 C   0  0  0  0  0  0  0  0  0  0  0  0
    1.8459   -3.0696    0.0000 C   0  0  0  0  0  0  0  0  0  0  0  0
    3.2024   -3.7099    0.0000 C   0  0  0  0  0  0  0  0  0  0  0  0
    4.4352   -2.8554    0.0000 C   0  0  0  0  0  0  0  0  0  0  0  0
    4.3114   -1.3605    0.0000 C   0  0  0  0  0  0  0  0  0  0  0  0
    2.9550   -0.7202    0.0000 C   0  0  0  0  0  0  0  0  0  0  0  0
    0.0865    0.5393    0.0000 C   0  0  0  0  0  0  0  0  0  0  0  0
    1.1146    1.6316    0.0000 C   0  0  0  0  0  0  0  0  0  0  0  0
    2.5746    1.2873    0.0000 C   0  0  0  0  0  0  0  0  0  0  0  0
    3.6027    2.3795    0.0000 C   0  0  0  0  0  0  0  0  0  0  0  0
    3.1709    3.8160    0.0000 C   0  0  0  0  0  0  0  0  0  0  0  0
    1.7109    4.1603    0.0000 C   0  0  0  0  0  0  0  0  0  0  0  0
    0.6828    3.0681    0.0000 C   0  0  0  0  0  0  0  0  0  0  0  0
   -1.4015    0.7291    0.0000 O   0  0  0  0  0  0  0  0  0  0  0  0
  1  2  2  0
  2  3  1  0
  2  4  1  0
  4  5  1  0
  5  6  1  0
  6  7  2  0
  7  8  1  0
  8  9  1  0
  9 10  2  0
 10 11  1  0
 11 12  2  0
 12 13  1  0
 13 14  2  0
  8 15  2  0
 15 16  1  0
 16 17  2  0
 17 18  1  0
 18 19  2  0
 19 20  1  0
 20 21  2  0
 15 22  1  0
 22  6  1  0
 14  9  1  0
 21 16  1  0
M  END
> <Identifier>
4614.0

> <DILI>
1

$$$$

     RDKit          2D

 18 19  0  0  0  0  0  0  0  0999 V2000
   -7.7225   -0.5257    0.0000 C   0  0  0  0  0  0  0  0  0  0  0  0
   -6.3813   -1.1973    0.0000 C   0  0  0  0  0  0  0  0  0  0  0  0
   -5.1290   -0.3717    0.0000 C   0  0  0  0  0  0  0  0  0  0  0  0
   -3.7878   -1.0433    0.0000 O   0  0  0  0  0  0  0  0  0  0  0  0
   -2.5355   -0.2177    0.0000 C   0  0  0  0  0  0  0  0  0  0  0  0
   -2.6244    1.2797    0.0000 C   0  0  0  0  0  0  0  0  0  0  0  0
   -1.3721    2.1054    0.0000 C   0  0  0  0  0  0  0  0  0  0  0  0
   -0.0309    1.4337    0.0000 C   0  0  0  0  0  0  0  0  0  0  0  0
    1.3657    1.9810    0.0000 N   0  0  0  0  0  0  0  0  0  0  0  0
    2.3177    0.8218    0.0000 C   0  0  0  0  0  0  0  0  0  0  0  0
    3.8151    0.9108    0.0000 N   0  0  0  0  0  0  0  0  0  0  0  0
    4.6408   -0.3415    0.0000 C   0  0  0  0  0  0  0  0  0  0  0  0
    3.9691   -1.6828    0.0000 O   0  0  0  0  0  0  0  0  0  0  0  0
    6.1382   -0.2526    0.0000 O   0  0  0  0  0  0  0  0  0  0  0  0
    6.9638   -1.5049    0.0000 C   0  0  0  0  0  0  0  0  0  0  0  0
    1.5095   -0.4418    0.0000 N   0  0  0  0  0  0  0  0  0  0  0  0
    0.0580   -0.0637    0.0000 C   0  0  0  0  0  0  0  0  0  0  0  0
   -1.1943   -0.8893    0.0000 C   0  0  0  0  0  0  0  0  0  0  0  0
  1  2  1  0
  2  3  1  0
  3  4  1  0
  4  5  1  0
  5  6  2  0
  6  7  1  0
  7  8  2  0
  8  9  1  0
  9 10  2  0
 10 11  1  0
 11 12  1  0
 12 13  2  0
 12 14  1  0
 14 15  1  0
 10 16  1  0
 16 17  1  0
 17 18  2  0
 18  5  1  0
 17  8  1  0
M  END
> <Identifier>
4622.0

> <DILI>
1

$$$$

     RDKit          2D

 26 27  0  0  0  0  0  0  0  0999 V2000
   -8.6976   -0.7020    0.0000 C   0  0  0  0  0  0  0  0  0  0  0  0
   -7.5409    0.2531    0.0000 C   0  0  0  0  0  0  0  0  0  0  0  0
   -6.1355   -0.2712    0.0000 N   0  0  0  0  0  0  0  0  0  0  0  0
   -5.8867   -1.7504    0.0000 C   0  0  0  0  0  0  0  0  0  0  0  0
   -7.0434   -2.7054    0.0000 C   0  0  0  0  0  0  0  0  0  0  0  0
   -4.9788    0.6839    0.0000 C   0  0  0  0  0  0  0  0  0  0  0  0
   -3.5734    0.1597    0.0000 C   0  0  0  0  0  0  0  0  0  0  0  0
   -2.1679   -0.3645    0.0000 C   0  0  0  0  0  0  0  0  0  0  0  0
   -0.7625   -0.8887    0.0000 C   0  0  0  0  0  0  0  0  0  0  0  0
    0.3942    0.0663    0.0000 O   0  0  0  0  0  0  0  0  0  0  0  0
    1.7996   -0.4579    0.0000 C   0  0  0  0  0  0  0  0  0  0  0  0
    2.0483   -1.9372    0.0000 O   0  0  0  0  0  0  0  0  0  0  0  0
    2.9563    0.4971    0.0000 C   0  0  0  0  0  0  0  0  0  0  0  0
    4.1130    1.4521    0.0000 O   0  0  0  0  0  0  0  0  0  0  0  0
    3.9113   -0.6596    0.0000 C   0  0  0  0  0  0  0  0  0  0  0  0
    3.3871   -2.0650    0.0000 C   0  0  0  0  0  0  0  0  0  0  0  0
    4.3421   -3.2217    0.0000 C   0  0  0  0  0  0  0  0  0  0  0  0
    5.8214   -2.9730    0.0000 C   0  0  0  0  0  0  0  0  0  0  0  0
    6.3456   -1.5675    0.0000 C   0  0  0  0  0  0  0  0  0  0  0  0
    5.3905   -0.4109    0.0000 C   0  0  0  0  0  0  0  0  0  0  0  0
    2.0013    1.6538    0.0000 C   0  0  0  0  0  0  0  0  0  0  0  0
    2.5255    3.0592    0.0000 C   0  0  0  0  0  0  0  0  0  0  0  0
    1.5704    4.2159    0.0000 C   0  0  0  0  0  0  0  0  0  0  0  0
    0.0912    3.9672    0.0000 C   0  0  0  0  0  0  0  0  0  0  0  0
   -0.4330    2.5617    0.0000 C   0  0  0  0  0  0  0  0  0  0  0  0
    0.5220    1.4051    0.0000 C   0  0  0  0  0  0  0  0  0  0  0  0
  1  2  1  0
  2  3  1  0
  3  4  1  0
  4  5  1  0
  3  6  1  0
  6  7  1  0
  7  8  3  0
  8  9  1  0
  9 10  1  0
 10 11  1  0
 11 12  2  0
 11 13  1  0
 13 14  1  0
 13 15  1  0
 15 16  2  0
 16 17  1  0
 17 18  2  0
 18 19  1  0
 19 20  2  0
 13 21  1  0
 21 22  1  0
 22 23  1  0
 23 24  1  0
 24 25  1  0
 25 26  1  0
 20 15  1  0
 26 21  1  0
M  END
> <Identifier>
4634.0

> <DILI>
0

$$$$

     RDKit          2D

 13 12  0  0  0  0  0  0  0  0999 V2000
    2.7235    2.1369    0.0000 N   0  0  0  0  0  0  0  0  0  0  0  0
    1.8879    0.8913    0.0000 C   0  0  0  0  0  0  0  0  0  0  0  0
    0.3913    0.9921    0.0000 C   0  0  0  0  0  0  0  0  0  0  0  0
   -0.4444   -0.2535    0.0000 C   0  0  0  0  0  0  0  0  0  0  0  0
   -1.2800   -1.4992    0.0000 O   0  0  0  0  0  0  0  0  0  0  0  0
    0.8013   -1.0892    0.0000 P   0  0  0  0  0  0  0  0  0  0  0  0
    2.0470   -1.9248    0.0000 O   0  0  0  0  0  0  0  0  0  0  0  0
   -0.0343   -2.3349    0.0000 O   0  0  0  0  0  0  0  0  0  0  0  0
    1.9135   -0.0827    0.0000 O   0  0  0  0  0  0  0  0  0  0  0  0
   -1.6900    0.5821    0.0000 P   0  0  0  0  0  0  0  0  0  0  0  0
   -2.9357    1.4177    0.0000 O   0  0  0  0  0  0  0  0  0  0  0  0
   -0.8544    1.8278    0.0000 O   0  0  0  0  0  0  0  0  0  0  0  0
   -2.5257   -0.6636    0.0000 O   0  0  0  0  0  0  0  0  0  0  0  0
  1  2  1  0
  2  3  1  0
  3  4  1  0
  4  5  1  0
  4  6  1  0
  6  7  2  0
  6  8  1  0
  6  9  1  0
  4 10  1  0
 10 11  2  0
 10 12  1  0
 10 13  1  0
M  END
> <Identifier>
4674.0

> <DILI>
0

$$$$

     RDKit          2D

 14 13  0  0  0  0  0  0  0  0999 V2000
   -3.2823    1.6178    0.0000 C   0  0  0  0  0  0  0  0  0  0  0  0
   -2.6803    0.2439    0.0000 C   0  0  0  0  0  0  0  0  0  0  0  0
   -2.0784   -1.1300    0.0000 C   0  0  0  0  0  0  0  0  0  0  0  0
   -4.0542   -0.3581    0.0000 C   0  0  0  0  0  0  0  0  0  0  0  0
   -4.2199   -1.8489    0.0000 O   0  0  0  0  0  0  0  0  0  0  0  0
   -1.3064    0.8459    0.0000 C   0  0  0  0  0  0  0  0  0  0  0  0
   -1.1408    2.3367    0.0000 O   0  0  0  0  0  0  0  0  0  0  0  0
   -0.0981   -0.0430    0.0000 C   0  0  0  0  0  0  0  0  0  0  0  0
   -0.2638   -1.5338    0.0000 O   0  0  0  0  0  0  0  0  0  0  0  0
    1.2758    0.5590    0.0000 N   0  0  0  0  0  0  0  0  0  0  0  0
    2.4841   -0.3299    0.0000 C   0  0  0  0  0  0  0  0  0  0  0  0
    3.8580    0.2721    0.0000 C   0  0  0  0  0  0  0  0  0  0  0  0
    5.0662   -0.6168    0.0000 C   0  0  0  0  0  0  0  0  0  0  0  0
    6.4402   -0.0148    0.0000 O   0  0  0  0  0  0  0  0  0  0  0  0
  1  2  1  0
  2  3  1  0
  2  4  1  0
  4  5  1  0
  2  6  1  0
  6  7  1  0
  6  8  1  0
  8  9  2  0
  8 10  1  0
 10 11  1  0
 11 12  1  0
 12 13  1  0
 13 14  1  0
M  END
> <Identifier>
4678.0

> <DILI>
0

$$$$

     RDKit          2D

 25 27  0  0  0  0  0  0  0  0999 V2000
   -7.3373    1.7974    0.0000 C   0  0  0  0  0  0  0  0  0  0  0  0
   -6.5018    0.5517    0.0000 O   0  0  0  0  0  0  0  0  0  0  0  0
   -5.0051    0.6525    0.0000 C   0  0  0  0  0  0  0  0  0  0  0  0
   -4.3441    1.9990    0.0000 C   0  0  0  0  0  0  0  0  0  0  0  0
   -2.8475    2.0998    0.0000 C   0  0  0  0  0  0  0  0  0  0  0  0
   -2.0119    0.8540    0.0000 C   0  0  0  0  0  0  0  0  0  0  0  0
   -0.5153    0.9548    0.0000 C   0  0  0  0  0  0  0  0  0  0  0  0
    0.3203   -0.2909    0.0000 C   0  0  0  0  0  0  0  0  0  0  0  0
   -0.3408   -1.6374    0.0000 N   0  0  0  0  0  0  0  0  0  0  0  0
    0.4948   -2.8831    0.0000 C   0  0  0  0  0  0  0  0  0  0  0  0
    1.9914   -2.7823    0.0000 C   0  0  0  0  0  0  0  0  0  0  0  0
    2.6525   -1.4359    0.0000 C   0  0  0  0  0  0  0  0  0  0  0  0
    4.1491   -1.3351    0.0000 C   0  0  0  0  0  0  0  0  0  0  0  0
    4.8101    0.0114    0.0000 C   0  0  0  0  0  0  0  0  0  0  0  0
    6.3067    0.1122    0.0000 O   0  0  0  0  0  0  0  0  0  0  0  0
    7.1423   -1.1335    0.0000 C   0  0  0  0  0  0  0  0  0  0  0  0
    3.9745    1.2571    0.0000 C   0  0  0  0  0  0  0  0  0  0  0  0
    4.6356    2.6036    0.0000 O   0  0  0  0  0  0  0  0  0  0  0  0
    3.8000    3.8493    0.0000 C   0  0  0  0  0  0  0  0  0  0  0  0
    2.4779    1.1564    0.0000 C   0  0  0  0  0  0  0  0  0  0  0  0
    1.8169   -0.1901    0.0000 C   0  0  0  0  0  0  0  0  0  0  0  0
   -2.6730   -0.4925    0.0000 C   0  0  0  0  0  0  0  0  0  0  0  0
   -4.1696   -0.5932    0.0000 C   0  0  0  0  0  0  0  0  0  0  0  0
   -4.8306   -1.9397    0.0000 O   0  0  0  0  0  0  0  0  0  0  0  0
   -3.9950   -3.1854    0.0000 C   0  0  0  0  0  0  0  0  0  0  0  0
  1  2  1  0
  2  3  1  0
  3  4  2  0
  4  5  1  0
  5  6  2  0
  6  7  1  0
  7  8  1  0
  8  9  2  0
  9 10  1  0
 10 11  2  0
 11 12  1  0
 12 13  2  0
 13 14  1  0
 14 15  1  0
 15 16  1  0
 14 17  2  0
 17 18  1  0
 18 19  1  0
 17 20  1  0
 20 21  2  0
  6 22  1  0
 22 23  2  0
 23 24  1  0
 24 25  1  0
 23  3  1  0
 21  8  1  0
 21 12  1  0
M  END
> <Identifier>
4680.0

> <DILI>
1

$$$$

     RDKit          2D

 12 12  0  0  0  0  0  0  0  0999 V2000
   -4.5008    1.5335    0.0000 C   0  0  0  0  0  0  0  0  0  0  0  0
   -3.1045    0.9856    0.0000 C   0  0  0  0  0  0  0  0  0  0  0  0
   -1.7082    0.4377    0.0000 C   0  0  0  0  0  0  0  0  0  0  0  0
   -1.4845   -1.0455    0.0000 N   0  0  0  0  0  0  0  0  0  0  0  0
   -2.6572   -1.9808    0.0000 C   0  0  0  0  0  0  0  0  0  0  0  0
   -0.0882   -1.5935    0.0000 C   0  0  0  0  0  0  0  0  0  0  0  0
    1.0845   -0.6581    0.0000 C   0  0  0  0  0  0  0  0  0  0  0  0
    0.8609    0.8251    0.0000 C   0  0  0  0  0  0  0  0  0  0  0  0
    2.0336    1.7604    0.0000 C   0  0  0  0  0  0  0  0  0  0  0  0
    3.4299    1.2125    0.0000 C   0  0  0  0  0  0  0  0  0  0  0  0
    3.6536   -0.2708    0.0000 C   0  0  0  0  0  0  0  0  0  0  0  0
    2.4809   -1.2061    0.0000 C   0  0  0  0  0  0  0  0  0  0  0  0
  1  2  3  0
  2  3  1  0
  3  4  1  0
  4  5  1  0
  4  6  1  0
  6  7  1  0
  7  8  2  0
  8  9  1  0
  9 10  2  0
 10 11  1  0
 11 12  2  0
 12  7  1  0
M  END
> <Identifier>
4688.0

> <DILI>
0

$$$$

     RDKit          2D

 13 14  0  0  0  0  0  0  0  0999 V2000
   -4.2169    1.4328    0.0000 N   0  0  0  0  0  0  0  0  0  0  0  0
   -2.9475    0.6335    0.0000 C   0  0  0  0  0  0  0  0  0  0  0  0
   -2.8481   -0.8632    0.0000 N   0  0  0  0  0  0  0  0  0  0  0  0
   -1.3939   -1.2311    0.0000 C   0  0  0  0  0  0  0  0  0  0  0  0
   -0.8368   -2.6238    0.0000 O   0  0  0  0  0  0  0  0  0  0  0  0
   -0.5946    0.0382    0.0000 C   0  0  0  0  0  0  0  0  0  0  0  0
    0.9021    0.1377    0.0000 C   0  0  0  0  0  0  0  0  0  0  0  0
    1.7366   -1.1088    0.0000 C   0  0  0  0  0  0  0  0  0  0  0  0
    3.2333   -1.0093    0.0000 C   0  0  0  0  0  0  0  0  0  0  0  0
    3.8955    0.3366    0.0000 C   0  0  0  0  0  0  0  0  0  0  0  0
    3.0610    1.5831    0.0000 C   0  0  0  0  0  0  0  0  0  0  0  0
    1.5643    1.4836    0.0000 C   0  0  0  0  0  0  0  0  0  0  0  0
   -1.5548    1.1906    0.0000 O   0  0  0  0  0  0  0  0  0  0  0  0
  1  2  1  0
  2  3  2  0
  3  4  1  0
  4  5  2  0
  4  6  1  0
  6  7  1  0
  7  8  2  0
  8  9  1  0
  9 10  2  0
 10 11  1  0
 11 12  2  0
  6 13  1  0
 13  2  1  0
 12  7  1  0
M  END
> <Identifier>
4723.0

> <DILI>
1

$$$$

     RDKit          2D

 20 22  0  0  0  0  0  0  0  0999 V2000
   -5.1344   -0.9559    0.0000 C   0  0  0  0  0  0  0  0  0  0  0  0
   -4.5478    0.4246    0.0000 C   0  0  0  0  0  0  0  0  0  0  0  0
   -3.0590    0.6070    0.0000 C   0  0  0  0  0  0  0  0  0  0  0  0
   -2.1566   -0.5913    0.0000 C   0  0  0  0  0  0  0  0  0  0  0  0
   -0.6677   -0.4090    0.0000 C   0  0  0  0  0  0  0  0  0  0  0  0
    0.2346   -1.6072    0.0000 C   0  0  0  0  0  0  0  0  0  0  0  0
    1.7235   -1.4249    0.0000 C   0  0  0  0  0  0  0  0  0  0  0  0
    2.6258   -2.6231    0.0000 C   0  0  0  0  0  0  0  0  0  0  0  0
    4.1147   -2.4408    0.0000 C   0  0  0  0  0  0  0  0  0  0  0  0
    4.7012   -1.0602    0.0000 C   0  0  0  0  0  0  0  0  0  0  0  0
    3.7989    0.1380    0.0000 C   0  0  0  0  0  0  0  0  0  0  0  0
    2.3100   -0.0443    0.0000 N   0  0  0  0  0  0  0  0  0  0  0  0
   -0.0812    0.9716    0.0000 C   0  0  0  0  0  0  0  0  0  0  0  0
    1.4077    1.1539    0.0000 C   0  0  0  0  0  0  0  0  0  0  0  0
    1.9942    2.5345    0.0000 C   0  0  0  0  0  0  0  0  0  0  0  0
    1.0919    3.7328    0.0000 C   0  0  0  0  0  0  0  0  0  0  0  0
   -0.3970    3.5504    0.0000 C   0  0  0  0  0  0  0  0  0  0  0  0
   -0.9835    2.1699    0.0000 C   0  0  0  0  0  0  0  0  0  0  0  0
   -2.7432   -1.9719    0.0000 C   0  0  0  0  0  0  0  0  0  0  0  0
   -4.2320   -2.1542    0.0000 C   0  0  0  0  0  0  0  0  0  0  0  0
  1  2  1  0
  2  3  1  0
  3  4  1  0
  4  5  1  0
  5  6  1  0
  6  7  1  0
  7  8  1  0
  8  9  1  0
  9 10  1  0
 10 11  1  0
 11 12  1  0
  5 13  1  0
 13 14  1  0
 14 15  1  0
 15 16  1  0
 16 17  1  0
 17 18  1  0
  4 19  1  0
 19 20  1  0
 20  1  1  0
 12  7  1  0
 18 13  1  0
M  END
> <Identifier>
4746.0

> <DILI>
1

$$$$

     RDKit          2D

 13 13  0  0  0  0  0  0  0  0999 V2000
   -5.6814   -0.0869    0.0000 C   0  0  0  0  0  0  0  0  0  0  0  0
   -4.2407    0.3309    0.0000 C   0  0  0  0  0  0  0  0  0  0  0  0
   -3.1586   -0.7079    0.0000 O   0  0  0  0  0  0  0  0  0  0  0  0
   -1.7179   -0.2901    0.0000 C   0  0  0  0  0  0  0  0  0  0  0  0
   -1.3594    1.1664    0.0000 C   0  0  0  0  0  0  0  0  0  0  0  0
    0.0812    1.5842    0.0000 C   0  0  0  0  0  0  0  0  0  0  0  0
    1.1633    0.5454    0.0000 C   0  0  0  0  0  0  0  0  0  0  0  0
    2.6040    0.9632    0.0000 N   0  0  0  0  0  0  0  0  0  0  0  0
    3.6861   -0.0755    0.0000 C   0  0  0  0  0  0  0  0  0  0  0  0
    5.1268    0.3422    0.0000 C   0  0  0  0  0  0  0  0  0  0  0  0
    3.3276   -1.5321    0.0000 O   0  0  0  0  0  0  0  0  0  0  0  0
    0.8048   -0.9111    0.0000 C   0  0  0  0  0  0  0  0  0  0  0  0
   -0.6358   -1.3289    0.0000 C   0  0  0  0  0  0  0  0  0  0  0  0
  1  2  1  0
  2  3  1  0
  3  4  1  0
  4  5  2  0
  5  6  1  0
  6  7  2  0
  7  8  1  0
  8  9  1  0
  9 10  1  0
  9 11  2  0
  7 12  1  0
 12 13  2  0
 13  4  1  0
M  END
> <Identifier>
4754.0

> <DILI>
1

$$$$

     RDKit          2D

 16 17  0  0  0  0  0  0  0  0999 V2000
   -5.9006   -0.2218    0.0000 N   0  0  0  0  0  0  0  0  0  0  0  0
   -4.4201    0.0196    0.0000 C   0  0  0  0  0  0  0  0  0  0  0  0
   -3.8890    1.4224    0.0000 C   0  0  0  0  0  0  0  0  0  0  0  0
   -2.4085    1.6638    0.0000 C   0  0  0  0  0  0  0  0  0  0  0  0
   -1.4593    0.5024    0.0000 C   0  0  0  0  0  0  0  0  0  0  0  0
    0.0212    0.7438    0.0000 N   0  0  0  0  0  0  0  0  0  0  0  0
    0.9705   -0.4176    0.0000 N   0  0  0  0  0  0  0  0  0  0  0  0
    2.4509   -0.1762    0.0000 C   0  0  0  0  0  0  0  0  0  0  0  0
    3.4002   -1.3376    0.0000 C   0  0  0  0  0  0  0  0  0  0  0  0
    4.8807   -1.0962    0.0000 C   0  0  0  0  0  0  0  0  0  0  0  0
    5.4118    0.3066    0.0000 C   0  0  0  0  0  0  0  0  0  0  0  0
    4.4625    1.4680    0.0000 C   0  0  0  0  0  0  0  0  0  0  0  0
    2.9821    1.2266    0.0000 C   0  0  0  0  0  0  0  0  0  0  0  0
   -1.9904   -0.9004    0.0000 C   0  0  0  0  0  0  0  0  0  0  0  0
   -1.0411   -2.0618    0.0000 N   0  0  0  0  0  0  0  0  0  0  0  0
   -3.4709   -1.1418    0.0000 N   0  0  0  0  0  0  0  0  0  0  0  0
  1  2  1  0
  2  3  2  0
  3  4  1  0
  4  5  2  0
  5  6  1  0
  6  7  2  3
  7  8  1  0
  8  9  2  0
  9 10  1  0
 10 11  2  0
 11 12  1  0
 12 13  2  0
  5 14  1  0
 14 15  1  0
 14 16  2  0
 16  2  1  0
 13  8  1  0
M  END
> <Identifier>
4756.0

> <DILI>
0

$$$$

     RDKit          2D

 21 22  0  0  0  0  0  0  0  0999 V2000
   -0.0876    3.6467    0.0000 C   0  0  0  0  0  0  0  0  0  0  0  0
    0.2528    2.1858    0.0000 C   0  0  0  0  0  0  0  0  0  0  0  0
    1.6882    1.7502    0.0000 C   0  0  0  0  0  0  0  0  0  0  0  0
    2.0286    0.2894    0.0000 O   0  0  0  0  0  0  0  0  0  0  0  0
    3.4640   -0.1463    0.0000 C   0  0  0  0  0  0  0  0  0  0  0  0
    3.8044   -1.6071    0.0000 C   0  0  0  0  0  0  0  0  0  0  0  0
    5.2397   -2.0428    0.0000 C   0  0  0  0  0  0  0  0  0  0  0  0
    6.3347   -1.0175    0.0000 C   0  0  0  0  0  0  0  0  0  0  0  0
    5.9942    0.4433    0.0000 C   0  0  0  0  0  0  0  0  0  0  0  0
    4.5589    0.8790    0.0000 C   0  0  0  0  0  0  0  0  0  0  0  0
   -0.8421    1.1606    0.0000 N   0  0  0  0  0  0  0  0  0  0  0  0
   -0.5017   -0.3003    0.0000 C   0  0  0  0  0  0  0  0  0  0  0  0
   -1.5966   -1.3255    0.0000 C   0  0  0  0  0  0  0  0  0  0  0  0
   -1.2562   -2.7864    0.0000 Cl  0  0  0  0  0  0  0  0  0  0  0  0
   -2.2774    1.5962    0.0000 C   0  0  0  0  0  0  0  0  0  0  0  0
   -3.3724    0.5710    0.0000 C   0  0  0  0  0  0  0  0  0  0  0  0
   -4.8077    1.0066    0.0000 C   0  0  0  0  0  0  0  0  0  0  0  0
   -5.9027   -0.0186    0.0000 C   0  0  0  0  0  0  0  0  0  0  0  0
   -5.5623   -1.4795    0.0000 C   0  0  0  0  0  0  0  0  0  0  0  0
   -4.1269   -1.9151    0.0000 C   0  0  0  0  0  0  0  0  0  0  0  0
   -3.0320   -0.8899    0.0000 C   0  0  0  0  0  0  0  0  0  0  0  0
  1  2  1  0
  2  3  1  0
  3  4  1  0
  4  5  1  0
  5  6  2  0
  6  7  1  0
  7  8  2  0
  8  9  1  0
  9 10  2  0
  2 11  1  0
 11 12  1  0
 12 13  1  0
 13 14  1  0
 11 15  1  0
 15 16  1  0
 16 17  2  0
 17 18  1  0
 18 19  2  0
 19 20  1  0
 20 21  2  0
 10  5  1  0
 21 16  1  0
M  END
> <Identifier>
4768.0

> <DILI>
0

$$$$

     RDKit          2D

 11 11  0  0  0  0  0  0  0  0999 V2000
   -1.1827    1.1339    0.0000 C   0  0  0  0  0  0  0  0  0  0  0  0
   -2.1647   -0.0000    0.0000 C   0  0  0  0  0  0  0  0  0  0  0  0
   -3.1467   -1.1339    0.0000 C   0  0  0  0  0  0  0  0  0  0  0  0
   -3.2986    0.9820    0.0000 N   0  0  0  0  0  0  0  0  0  0  0  0
   -1.0308   -0.9820    0.0000 C   0  0  0  0  0  0  0  0  0  0  0  0
    0.3866   -0.4910    0.0000 C   0  0  0  0  0  0  0  0  0  0  0  0
    0.6700    0.9820    0.0000 C   0  0  0  0  0  0  0  0  0  0  0  0
    2.0874    1.4730    0.0000 C   0  0  0  0  0  0  0  0  0  0  0  0
    3.2213    0.4910    0.0000 C   0  0  0  0  0  0  0  0  0  0  0  0
    2.9378   -0.9820    0.0000 C   0  0  0  0  0  0  0  0  0  0  0  0
    1.5204   -1.4730    0.0000 C   0  0  0  0  0  0  0  0  0  0  0  0
  1  2  1  0
  2  3  1  0
  2  4  1  0
  2  5  1  0
  5  6  1  0
  6  7  2  0
  7  8  1  0
  8  9  2  0
  9 10  1  0
 10 11  2  0
 11  6  1  0
M  END
> <Identifier>
4771.0

> <DILI>
0

$$$$

     RDKit          2D

 23 25  0  0  0  0  0  0  0  0999 V2000
   -7.1518    0.4597    0.0000 C   0  0  0  0  0  0  0  0  0  0  0  0
   -6.0792   -0.5888    0.0000 C   0  0  0  0  0  0  0  0  0  0  0  0
   -4.6348   -0.1842    0.0000 C   0  0  0  0  0  0  0  0  0  0  0  0
   -3.5621   -1.2327    0.0000 C   0  0  0  0  0  0  0  0  0  0  0  0
   -2.1178   -0.8280    0.0000 C   0  0  0  0  0  0  0  0  0  0  0  0
   -0.9414   -1.7586    0.0000 C   0  0  0  0  0  0  0  0  0  0  0  0
   -1.0028   -3.2574    0.0000 O   0  0  0  0  0  0  0  0  0  0  0  0
    0.3073   -0.9274    0.0000 N   0  0  0  0  0  0  0  0  0  0  0  0
    1.7137   -1.4490    0.0000 C   0  0  0  0  0  0  0  0  0  0  0  0
    1.9652   -2.9278    0.0000 C   0  0  0  0  0  0  0  0  0  0  0  0
    3.3716   -3.4493    0.0000 C   0  0  0  0  0  0  0  0  0  0  0  0
    4.5265   -2.4922    0.0000 C   0  0  0  0  0  0  0  0  0  0  0  0
    4.2750   -1.0134    0.0000 C   0  0  0  0  0  0  0  0  0  0  0  0
    2.8686   -0.4918    0.0000 C   0  0  0  0  0  0  0  0  0  0  0  0
   -0.0974    0.5170    0.0000 N   0  0  0  0  0  0  0  0  0  0  0  0
    0.8332    1.6934    0.0000 C   0  0  0  0  0  0  0  0  0  0  0  0
    2.3173    1.4756    0.0000 C   0  0  0  0  0  0  0  0  0  0  0  0
    3.2480    2.6520    0.0000 C   0  0  0  0  0  0  0  0  0  0  0  0
    2.6945    4.0461    0.0000 C   0  0  0  0  0  0  0  0  0  0  0  0
    1.2104    4.2639    0.0000 C   0  0  0  0  0  0  0  0  0  0  0  0
    0.2798    3.0875    0.0000 C   0  0  0  0  0  0  0  0  0  0  0  0
   -1.5962    0.5784    0.0000 C   0  0  0  0  0  0  0  0  0  0  0  0
   -2.4274    1.8270    0.0000 O   0  0  0  0  0  0  0  0  0  0  0  0
  1  2  1  0
  2  3  1  0
  3  4  1  0
  4  5  1  0
  5  6  1  0
  6  7  2  0
  6  8  1  0
  8  9  1  0
  9 10  2  0
 10 11  1  0
 11 12  2  0
 12 13  1  0
 13 14  2  0
  8 15  1  0
 15 16  1  0
 16 17  2  0
 17 18  1  0
 18 19  2  0
 19 20  1  0
 20 21  2  0
 15 22  1  0
 22 23  2  0
 22  5  1  0
 14  9  1  0
 21 16  1  0
M  END
> <Identifier>
4781.0

> <DILI>
1

$$$$

     RDKit          2D

 33 34  0  0  0  0  0  0  0  0999 V2000
    0.8290    2.4412    0.0000 C   0  0  0  0  0  0  0  0  0  0  0  0
    1.5124    1.1059    0.0000 C   0  0  0  0  0  0  0  0  0  0  0  0
    3.0105    1.0301    0.0000 C   0  0  0  0  0  0  0  0  0  0  0  0
    3.6938   -0.3052    0.0000 C   0  0  0  0  0  0  0  0  0  0  0  0
    5.1919   -0.3810    0.0000 C   0  0  0  0  0  0  0  0  0  0  0  0
    5.8753   -1.7163    0.0000 C   0  0  0  0  0  0  0  0  0  0  0  0
    5.0606   -2.9758    0.0000 C   0  0  0  0  0  0  0  0  0  0  0  0
    7.3734   -1.7921    0.0000 C   0  0  0  0  0  0  0  0  0  0  0  0
    8.0568   -3.1274    0.0000 O   0  0  0  0  0  0  0  0  0  0  0  0
    8.1881   -0.5327    0.0000 C   0  0  0  0  0  0  0  0  0  0  0  0
    9.6862   -0.6085    0.0000 C   0  0  0  0  0  0  0  0  0  0  0  0
   10.5009    0.6510    0.0000 C   0  0  0  0  0  0  0  0  0  0  0  0
    9.8175    1.9863    0.0000 C   0  0  0  0  0  0  0  0  0  0  0  0
    8.3194    2.0621    0.0000 C   0  0  0  0  0  0  0  0  0  0  0  0
    7.5047    0.8026    0.0000 C   0  0  0  0  0  0  0  0  0  0  0  0
    6.0066    0.8785    0.0000 C   0  0  0  0  0  0  0  0  0  0  0  0
    5.3232    2.2137    0.0000 O   0  0  0  0  0  0  0  0  0  0  0  0
    0.6977   -0.1536    0.0000 C   0  0  0  0  0  0  0  0  0  0  0  0
   -0.8004   -0.0777    0.0000 C   0  0  0  0  0  0  0  0  0  0  0  0
   -1.6151   -1.3372    0.0000 C   0  0  0  0  0  0  0  0  0  0  0  0
   -3.1132   -1.2614    0.0000 C   0  0  0  0  0  0  0  0  0  0  0  0
   -3.9279   -2.5209    0.0000 C   0  0  0  0  0  0  0  0  0  0  0  0
   -3.7966    0.0739    0.0000 C   0  0  0  0  0  0  0  0  0  0  0  0
   -5.2947    0.1497    0.0000 C   0  0  0  0  0  0  0  0  0  0  0  0
   -5.9780    1.4850    0.0000 C   0  0  0  0  0  0  0  0  0  0  0  0
   -7.4761    1.5608    0.0000 C   0  0  0  0  0  0  0  0  0  0  0  0
   -8.1595    2.8961    0.0000 C   0  0  0  0  0  0  0  0  0  0  0  0
   -8.2908    0.3014    0.0000 C   0  0  0  0  0  0  0  0  0  0  0  0
   -9.7889    0.3772    0.0000 C   0  0  0  0  0  0  0  0  0  0  0  0
  -10.6036   -0.8823    0.0000 C   0  0  0  0  0  0  0  0  0  0  0  0
  -12.1017   -0.8065    0.0000 C   0  0  0  0  0  0  0  0  0  0  0  0
  -12.9164   -2.0659    0.0000 C   0  0  0  0  0  0  0  0  0  0  0  0
  -12.7851    0.5288    0.0000 C   0  0  0  0  0  0  0  0  0  0  0  0
  1  2  1  0
  2  3  2  3
  3  4  1  0
  4  5  1  0
  5  6  2  0
  6  7  1  0
  6  8  1  0
  8  9  2  0
  8 10  1  0
 10 11  2  0
 11 12  1  0
 12 13  2  0
 13 14  1  0
 14 15  2  0
 15 16  1  0
 16 17  2  0
  2 18  1  0
 18 19  1  0
 19 20  1  0
 20 21  1  0
 21 22  1  0
 21 23  1  0
 23 24  1  0
 24 25  1  0
 25 26  1  0
 26 27  1  0
 26 28  1  0
 28 29  1  0
 29 30  1  0
 30 31  1  0
 31 32  1  0
 31 33  1  0
 16  5  1  0
 15 10  1  0
M  END
> <Identifier>
4812.0

> <DILI>
0

$$$$

     RDKit          2D

 18 18  0  0  0  0  0  0  0  0999 V2000
   -2.9476   -0.7115    0.0000 C   0  0  0  0  0  0  0  0  0  0  0  0
   -1.8896    0.3518    0.0000 C   0  0  0  0  0  0  0  0  0  0  0  0
   -0.4397   -0.0327    0.0000 N   0  0  0  0  0  0  0  0  0  0  0  0
   -0.0478   -1.4806    0.0000 C   0  0  0  0  0  0  0  0  0  0  0  0
   -1.1058   -2.5440    0.0000 N   0  0  0  0  0  0  0  0  0  0  0  0
   -2.5556   -2.1594    0.0000 C   0  0  0  0  0  0  0  0  0  0  0  0
   -4.0055   -1.7749    0.0000 N   0  0  0  0  0  0  0  0  0  0  0  0
    1.4021   -1.8651    0.0000 N   0  0  0  0  0  0  0  0  0  0  0  0
    2.4600   -0.8018    0.0000 C   0  0  0  0  0  0  0  0  0  0  0  0
    2.0681    0.6461    0.0000 C   0  0  0  0  0  0  0  0  0  0  0  0
    3.1260    1.7095    0.0000 C   0  0  0  0  0  0  0  0  0  0  0  0
    4.5759    1.3250    0.0000 N   0  0  0  0  0  0  0  0  0  0  0  0
    4.9678   -0.1229    0.0000 C   0  0  0  0  0  0  0  0  0  0  0  0
    3.9099   -1.1863    0.0000 C   0  0  0  0  0  0  0  0  0  0  0  0
   -2.2815    1.7997    0.0000 C   0  0  0  0  0  0  0  0  0  0  0  0
   -3.7294    1.4078    0.0000 C   0  0  0  0  0  0  0  0  0  0  0  0
   -0.8337    2.1916    0.0000 C   0  0  0  0  0  0  0  0  0  0  0  0
   -2.6735    3.2476    0.0000 C   0  0  0  0  0  0  0  0  0  0  0  0
  1  2  1  0
  2  3  1  0
  3  4  2  3
  4  5  1  0
  5  6  1  0
  6  7  3  0
  4  8  1  0
  8  9  1  0
  9 10  2  0
 10 11  1  0
 11 12  2  0
 12 13  1  0
 13 14  2  0
  2 15  1  0
 15 16  1  0
 15 17  1  0
 15 18  1  0
 14  9  1  0
M  END
> <Identifier>
4826.0

> <DILI>
0

$$$$

     RDKit          2D

 18 19  0  0  0  0  0  0  0  0999 V2000
    7.3146    0.6094    0.0000 C   0  0  0  0  0  0  0  0  0  0  0  0
    6.0289   -0.1633    0.0000 C   0  0  0  0  0  0  0  0  0  0  0  0
    6.0553   -1.6630    0.0000 C   0  0  0  0  0  0  0  0  0  0  0  0
    4.7169    0.5638    0.0000 N   0  0  0  0  0  0  0  0  0  0  0  0
    3.4313   -0.2089    0.0000 C   0  0  0  0  0  0  0  0  0  0  0  0
    2.1192    0.5181    0.0000 C   0  0  0  0  0  0  0  0  0  0  0  0
    2.0929    2.0179    0.0000 O   0  0  0  0  0  0  0  0  0  0  0  0
    0.8336   -0.2546    0.0000 C   0  0  0  0  0  0  0  0  0  0  0  0
   -0.4784    0.4725    0.0000 O   0  0  0  0  0  0  0  0  0  0  0  0
   -1.7641   -0.3002    0.0000 C   0  0  0  0  0  0  0  0  0  0  0  0
   -1.7377   -1.8000    0.0000 C   0  0  0  0  0  0  0  0  0  0  0  0
   -3.0234   -2.5727    0.0000 C   0  0  0  0  0  0  0  0  0  0  0  0
   -4.3354   -1.8456    0.0000 C   0  0  0  0  0  0  0  0  0  0  0  0
   -4.3618   -0.3458    0.0000 C   0  0  0  0  0  0  0  0  0  0  0  0
   -5.4940    0.6381    0.0000 N   0  0  0  0  0  0  0  0  0  0  0  0
   -4.9080    2.0189    0.0000 C   0  0  0  0  0  0  0  0  0  0  0  0
   -3.4137    1.8884    0.0000 C   0  0  0  0  0  0  0  0  0  0  0  0
   -3.0761    0.4269    0.0000 C   0  0  0  0  0  0  0  0  0  0  0  0
  1  2  1  0
  2  3  1  0
  2  4  1  0
  4  5  1  0
  5  6  1  0
  6  7  1  0
  6  8  1  0
  8  9  1  0
  9 10  1  0
 10 11  2  0
 11 12  1  0
 12 13  2  0
 13 14  1  0
 14 15  1  0
 15 16  1  0
 16 17  2  0
 17 18  1  0
 18 10  1  0
 18 14  2  0
M  END
> <Identifier>
4828.0

> <DILI>
0

$$$$

     RDKit          2D

 23 26  0  0  0  0  0  0  0  0999 V2000
   -3.4112   -2.6613    0.0000 O   0  0  0  0  0  0  0  0  0  0  0  0
   -2.5772   -1.4146    0.0000 C   0  0  0  0  0  0  0  0  0  0  0  0
   -3.2399   -0.0689    0.0000 C   0  0  0  0  0  0  0  0  0  0  0  0
   -2.4058    1.1779    0.0000 C   0  0  0  0  0  0  0  0  0  0  0  0
   -3.0685    2.5235    0.0000 C   0  0  0  0  0  0  0  0  0  0  0  0
   -4.5653    2.6224    0.0000 C   0  0  0  0  0  0  0  0  0  0  0  0
   -5.3993    1.3757    0.0000 C   0  0  0  0  0  0  0  0  0  0  0  0
   -4.7366    0.0300    0.0000 C   0  0  0  0  0  0  0  0  0  0  0  0
   -1.0804   -1.5135    0.0000 N   0  0  0  0  0  0  0  0  0  0  0  0
   -0.4177   -2.8592    0.0000 C   0  0  0  0  0  0  0  0  0  0  0  0
    1.0790   -2.9581    0.0000 C   0  0  0  0  0  0  0  0  0  0  0  0
    1.7417   -4.3037    0.0000 O   0  0  0  0  0  0  0  0  0  0  0  0
    1.9130   -1.7113    0.0000 N   0  0  0  0  0  0  0  0  0  0  0  0
    3.4098   -1.8102    0.0000 C   0  0  0  0  0  0  0  0  0  0  0  0
    4.2438   -0.5635    0.0000 C   0  0  0  0  0  0  0  0  0  0  0  0
    3.5811    0.7822    0.0000 C   0  0  0  0  0  0  0  0  0  0  0  0
    4.4152    2.0289    0.0000 C   0  0  0  0  0  0  0  0  0  0  0  0
    3.7524    3.3746    0.0000 C   0  0  0  0  0  0  0  0  0  0  0  0
    2.2557    3.4735    0.0000 C   0  0  0  0  0  0  0  0  0  0  0  0
    1.4217    2.2268    0.0000 C   0  0  0  0  0  0  0  0  0  0  0  0
    2.0844    0.8811    0.0000 C   0  0  0  0  0  0  0  0  0  0  0  0
    1.2503   -0.3657    0.0000 C   0  0  0  0  0  0  0  0  0  0  0  0
   -0.2464   -0.2667    0.0000 C   0  0  0  0  0  0  0  0  0  0  0  0
  1  2  2  0
  2  3  1  0
  3  4  1  0
  4  5  1  0
  5  6  1  0
  6  7  1  0
  7  8  1  0
  2  9  1  0
  9 10  1  0
 10 11  1  0
 11 12  2  0
 11 13  1  0
 13 14  1  0
 14 15  1  0
 15 16  1  0
 16 17  2  0
 17 18  1  0
 18 19  2  0
 19 20  1  0
 20 21  2  0
 21 22  1  0
 22 23  1  0
  8  3  1  0
 23  9  1  0
 22 13  1  0
 21 16  1  0
M  END
> <Identifier>
4891.0

> <DILI>
0

$$$$

     RDKit          2D

 19 20  0  0  0  0  0  0  0  0999 V2000
    0.4455    4.5077    0.0000 C   0  0  0  0  0  0  0  0  0  0  0  0
   -0.3191    3.2172    0.0000 O   0  0  0  0  0  0  0  0  0  0  0  0
    0.4162    1.9098    0.0000 C   0  0  0  0  0  0  0  0  0  0  0  0
   -0.3483    0.6193    0.0000 C   0  0  0  0  0  0  0  0  0  0  0  0
    0.3870   -0.6881    0.0000 C   0  0  0  0  0  0  0  0  0  0  0  0
   -0.3775   -1.9786    0.0000 N   0  0  0  0  0  0  0  0  0  0  0  0
   -1.8774   -1.9618    0.0000 C   0  0  0  0  0  0  0  0  0  0  0  0
   -2.6420   -3.2523    0.0000 C   0  0  0  0  0  0  0  0  0  0  0  0
   -2.6128   -0.6544    0.0000 C   0  0  0  0  0  0  0  0  0  0  0  0
   -4.1127   -0.6375    0.0000 C   0  0  0  0  0  0  0  0  0  0  0  0
   -4.8480    0.6699    0.0000 C   0  0  0  0  0  0  0  0  0  0  0  0
   -6.3479    0.6868    0.0000 N   0  0  0  0  0  0  0  0  0  0  0  0
    1.8869   -0.7050    0.0000 C   0  0  0  0  0  0  0  0  0  0  0  0
    2.6223   -2.0124    0.0000 N   0  0  0  0  0  0  0  0  0  0  0  0
    4.1222   -2.0292    0.0000 C   0  0  0  0  0  0  0  0  0  0  0  0
    4.8867   -0.7387    0.0000 C   0  0  0  0  0  0  0  0  0  0  0  0
    4.1514    0.5687    0.0000 C   0  0  0  0  0  0  0  0  0  0  0  0
    2.6515    0.5856    0.0000 C   0  0  0  0  0  0  0  0  0  0  0  0
    1.9161    1.8929    0.0000 C   0  0  0  0  0  0  0  0  0  0  0  0
  1  2  1  0
  2  3  1  0
  3  4  2  0
  4  5  1  0
  5  6  1  0
  6  7  1  0
  7  8  1  0
  7  9  1  0
  9 10  1  0
 10 11  1  0
 11 12  1  0
  5 13  2  0
 13 14  1  0
 14 15  2  0
 15 16  1  0
 16 17  2  0
 17 18  1  0
 18 19  2  0
 19  3  1  0
 18 13  1  0
M  END
> <Identifier>
4908.0

> <DILI>
0

$$$$

     RDKit          2D

 16 17  0  0  0  0  0  0  0  0999 V2000
   -1.5792   -2.5361    0.0000 C   0  0  0  0  0  0  0  0  0  0  0  0
   -0.4167   -1.5882    0.0000 C   0  0  0  0  0  0  0  0  0  0  0  0
   -0.6564   -0.1075    0.0000 C   0  0  0  0  0  0  0  0  0  0  0  0
    0.8434   -0.1285    0.0000 C   0  0  0  0  0  0  0  0  0  0  0  0
    1.5751   -1.4379    0.0000 C   0  0  0  0  0  0  0  0  0  0  0  0
    3.0750   -1.4590    0.0000 C   0  0  0  0  0  0  0  0  0  0  0  0
    3.8431   -0.1706    0.0000 C   0  0  0  0  0  0  0  0  0  0  0  0
    3.1114    1.1388    0.0000 C   0  0  0  0  0  0  0  0  0  0  0  0
    1.6116    1.1599    0.0000 C   0  0  0  0  0  0  0  0  0  0  0  0
   -0.3752    1.3660    0.0000 C   0  0  0  0  0  0  0  0  0  0  0  0
    1.0414    1.8592    0.0000 O   0  0  0  0  0  0  0  0  0  0  0  0
   -1.5107    2.3462    0.0000 N   0  0  0  0  0  0  0  0  0  0  0  0
   -2.9273    1.8530    0.0000 C   0  0  0  0  0  0  0  0  0  0  0  0
   -3.2084    0.3795    0.0000 N   0  0  0  0  0  0  0  0  0  0  0  0
   -2.0730   -0.6007    0.0000 C   0  0  0  0  0  0  0  0  0  0  0  0
   -2.3542   -2.0741    0.0000 O   0  0  0  0  0  0  0  0  0  0  0  0
  1  2  1  0
  2  3  1  0
  3  4  1  0
  4  5  2  0
  5  6  1  0
  6  7  2  0
  7  8  1  0
  8  9  2  0
  3 10  1  0
 10 11  2  0
 10 12  1  0
 12 13  1  0
 13 14  1  0
 14 15  1  0
 15 16  2  0
 15  3  1  0
  9  4  1  0
M  END
> <Identifier>
4909.0

> <DILI>
0

$$$$

     RDKit          2D

 35 36  0  0  0  0  0  0  0  0999 V2000
    1.0188    1.1010    0.0000 C   0  0  0  0  0  0  0  0  0  0  0  0
   -0.0000    0.0000    0.0000 C   0  0  0  0  0  0  0  0  0  0  0  0
   -1.0188   -1.1010    0.0000 C   0  0  0  0  0  0  0  0  0  0  0  0
    1.1010   -1.0188    0.0000 S   0  0  0  0  0  0  0  0  0  0  0  0
    2.5337   -0.5747    0.0000 C   0  0  0  0  0  0  0  0  0  0  0  0
    3.6347   -1.5935    0.0000 C   0  0  0  0  0  0  0  0  0  0  0  0
    5.0674   -1.1494    0.0000 C   0  0  0  0  0  0  0  0  0  0  0  0
    6.1684   -2.1682    0.0000 C   0  0  0  0  0  0  0  0  0  0  0  0
    5.1496   -3.2691    0.0000 C   0  0  0  0  0  0  0  0  0  0  0  0
    7.1872   -1.0672    0.0000 C   0  0  0  0  0  0  0  0  0  0  0  0
    7.2693   -3.1870    0.0000 C   0  0  0  0  0  0  0  0  0  0  0  0
    5.3992    0.3134    0.0000 C   0  0  0  0  0  0  0  0  0  0  0  0
    6.8320    0.7575    0.0000 O   0  0  0  0  0  0  0  0  0  0  0  0
    4.2983    1.3322    0.0000 C   0  0  0  0  0  0  0  0  0  0  0  0
    4.6301    2.7950    0.0000 C   0  0  0  0  0  0  0  0  0  0  0  0
    6.0929    2.4632    0.0000 C   0  0  0  0  0  0  0  0  0  0  0  0
    3.1672    3.1269    0.0000 C   0  0  0  0  0  0  0  0  0  0  0  0
    4.9619    4.2579    0.0000 C   0  0  0  0  0  0  0  0  0  0  0  0
    2.8655    0.8881    0.0000 C   0  0  0  0  0  0  0  0  0  0  0  0
   -1.1010    1.0188    0.0000 S   0  0  0  0  0  0  0  0  0  0  0  0
   -2.5337    0.5747    0.0000 C   0  0  0  0  0  0  0  0  0  0  0  0
   -3.6347    1.5935    0.0000 C   0  0  0  0  0  0  0  0  0  0  0  0
   -5.0674    1.1494    0.0000 C   0  0  0  0  0  0  0  0  0  0  0  0
   -6.1684    2.1682    0.0000 C   0  0  0  0  0  0  0  0  0  0  0  0
   -7.1872    1.0672    0.0000 C   0  0  0  0  0  0  0  0  0  0  0  0
   -5.1496    3.2691    0.0000 C   0  0  0  0  0  0  0  0  0  0  0  0
   -7.2693    3.1870    0.0000 C   0  0  0  0  0  0  0  0  0  0  0  0
   -5.3992   -0.3134    0.0000 C   0  0  0  0  0  0  0  0  0  0  0  0
   -6.8320   -0.7575    0.0000 O   0  0  0  0  0  0  0  0  0  0  0  0
   -4.2983   -1.3322    0.0000 C   0  0  0  0  0  0  0  0  0  0  0  0
   -4.6301   -2.7950    0.0000 C   0  0  0  0  0  0  0  0  0  0  0  0
   -6.0929   -2.4632    0.0000 C   0  0  0  0  0  0  0  0  0  0  0  0
   -3.1672   -3.1269    0.0000 C   0  0  0  0  0  0  0  0  0  0  0  0
   -4.9619   -4.2579    0.0000 C   0  0  0  0  0  0  0  0  0  0  0  0
   -2.8655   -0.8881    0.0000 C   0  0  0  0  0  0  0  0  0  0  0  0
  1  2  1  0
  2  3  1  0
  2  4  1  0
  4  5  1  0
  5  6  2  0
  6  7  1  0
  7  8  1  0
  8  9  1  0
  8 10  1  0
  8 11  1  0
  7 12  2  0
 12 13  1  0
 12 14  1  0
 14 15  1  0
 15 16  1  0
 15 17  1  0
 15 18  1  0
 14 19  2  0
  2 20  1  0
 20 21  1  0
 21 22  2  0
 22 23  1  0
 23 24  1  0
 24 25  1  0
 24 26  1  0
 24 27  1  0
 23 28  2  0
 28 29  1  0
 28 30  1  0
 30 31  1  0
 31 32  1  0
 31 33  1  0
 31 34  1  0
 30 35  2  0
 19  5  1  0
 35 21  1  0
M  END
> <Identifier>
4912.0

> <DILI>
0

$$$$

     RDKit          2D

 25 28  0  0  0  0  0  0  0  0999 V2000
   -7.6166    0.2199    0.0000 C   0  0  0  0  0  0  0  0  0  0  0  0
   -6.2140   -0.3118    0.0000 N   0  0  0  0  0  0  0  0  0  0  0  0
   -5.0522    0.6371    0.0000 C   0  0  0  0  0  0  0  0  0  0  0  0
   -3.6496    0.1054    0.0000 C   0  0  0  0  0  0  0  0  0  0  0  0
   -3.4088   -1.3752    0.0000 N   0  0  0  0  0  0  0  0  0  0  0  0
   -2.0062   -1.9069    0.0000 C   0  0  0  0  0  0  0  0  0  0  0  0
   -0.8444   -0.9580    0.0000 C   0  0  0  0  0  0  0  0  0  0  0  0
    0.5582   -1.4897    0.0000 C   0  0  0  0  0  0  0  0  0  0  0  0
    1.7200   -0.5409    0.0000 N   0  0  0  0  0  0  0  0  0  0  0  0
    3.1226   -1.0725    0.0000 C   0  0  0  0  0  0  0  0  0  0  0  0
    3.3634   -2.5531    0.0000 C   0  0  0  0  0  0  0  0  0  0  0  0
    4.7660   -3.0848    0.0000 C   0  0  0  0  0  0  0  0  0  0  0  0
    5.9278   -2.1359    0.0000 C   0  0  0  0  0  0  0  0  0  0  0  0
    5.6869   -0.6554    0.0000 C   0  0  0  0  0  0  0  0  0  0  0  0
    4.2843   -0.1237    0.0000 C   0  0  0  0  0  0  0  0  0  0  0  0
    4.0435    1.3568    0.0000 S   0  0  0  0  0  0  0  0  0  0  0  0
    2.6409    1.8885    0.0000 C   0  0  0  0  0  0  0  0  0  0  0  0
    2.4000    3.3691    0.0000 C   0  0  0  0  0  0  0  0  0  0  0  0
    0.9974    3.9008    0.0000 C   0  0  0  0  0  0  0  0  0  0  0  0
   -0.1643    2.9519    0.0000 C   0  0  0  0  0  0  0  0  0  0  0  0
   -1.5669    3.4836    0.0000 Cl  0  0  0  0  0  0  0  0  0  0  0  0
    0.0765    1.4714    0.0000 C   0  0  0  0  0  0  0  0  0  0  0  0
    1.4791    0.9397    0.0000 C   0  0  0  0  0  0  0  0  0  0  0  0
   -4.5705   -2.3240    0.0000 C   0  0  0  0  0  0  0  0  0  0  0  0
   -5.9731   -1.7923    0.0000 C   0  0  0  0  0  0  0  0  0  0  0  0
  1  2  1  0
  2  3  1  0
  3  4  1  0
  4  5  1  0
  5  6  1  0
  6  7  1  0
  7  8  1  0
  8  9  1  0
  9 10  1  0
 10 11  2  0
 11 12  1  0
 12 13  2  0
 13 14  1  0
 14 15  2  0
 15 16  1  0
 16 17  1  0
 17 18  2  0
 18 19  1  0
 19 20  2  0
 20 21  1  0
 20 22  1  0
 22 23  2  0
  5 24  1  0
 24 25  1  0
 25  2  1  0
 23  9  1  0
 15 10  1  0
 23 17  1  0
M  END
> <Identifier>
4917.0

> <DILI>
1

$$$$

     RDKit          2D

 21 23  0  0  0  0  0  0  0  0999 V2000
    0.0629   -1.9824    0.0000 O   0  0  0  0  0  0  0  0  0  0  0  0
   -0.3746   -0.5476    0.0000 C   0  0  0  0  0  0  0  0  0  0  0  0
    1.0601   -0.1101    0.0000 C   0  0  0  0  0  0  0  0  0  0  0  0
    2.1564   -1.1339    0.0000 C   0  0  0  0  0  0  0  0  0  0  0  0
    3.5912   -0.6964    0.0000 N   0  0  0  0  0  0  0  0  0  0  0  0
    4.0806    0.7215    0.0000 C   0  0  0  0  0  0  0  0  0  0  0  0
    5.5803    0.6942    0.0000 C   0  0  0  0  0  0  0  0  0  0  0  0
    6.0178   -0.7406    0.0000 C   0  0  0  0  0  0  0  0  0  0  0  0
    4.7885   -1.6000    0.0000 C   0  0  0  0  0  0  0  0  0  0  0  0
   -0.8122    0.8871    0.0000 C   0  0  0  0  0  0  0  0  0  0  0  0
    0.2116    1.9834    0.0000 C   0  0  0  0  0  0  0  0  0  0  0  0
   -0.2259    3.4182    0.0000 C   0  0  0  0  0  0  0  0  0  0  0  0
   -1.6872    3.7567    0.0000 C   0  0  0  0  0  0  0  0  0  0  0  0
   -2.7110    2.6604    0.0000 C   0  0  0  0  0  0  0  0  0  0  0  0
   -2.2735    1.2256    0.0000 C   0  0  0  0  0  0  0  0  0  0  0  0
   -1.8094   -0.9852    0.0000 C   0  0  0  0  0  0  0  0  0  0  0  0
   -2.9057    0.0386    0.0000 C   0  0  0  0  0  0  0  0  0  0  0  0
   -4.3405   -0.3989    0.0000 C   0  0  0  0  0  0  0  0  0  0  0  0
   -4.6790   -1.8602    0.0000 C   0  0  0  0  0  0  0  0  0  0  0  0
   -3.5827   -2.8840    0.0000 C   0  0  0  0  0  0  0  0  0  0  0  0
   -2.1479   -2.4465    0.0000 C   0  0  0  0  0  0  0  0  0  0  0  0
  1  2  1  0
  2  3  1  0
  3  4  1  0
  4  5  1  0
  5  6  1  0
  6  7  1  0
  7  8  1  0
  8  9  1  0
  2 10  1  0
 10 11  2  0
 11 12  1  0
 12 13  2  0
 13 14  1  0
 14 15  2  0
  2 16  1  0
 16 17  1  0
 17 18  1  0
 18 19  1  0
 19 20  1  0
 20 21  1  0
  9  5  1  0
 15 10  1  0
 21 16  1  0
M  END
> <Identifier>
4919.0

> <DILI>
0

$$$$

     RDKit          2D

 25 26  0  0  0  0  0  0  0  0999 V2000
   -8.1263    2.2991    0.0000 C   0  0  0  0  0  0  0  0  0  0  0  0
   -6.8576    1.4990    0.0000 C   0  0  0  0  0  0  0  0  0  0  0  0
   -5.5302    2.1976    0.0000 C   0  0  0  0  0  0  0  0  0  0  0  0
   -4.2615    1.3975    0.0000 N   0  0  0  0  0  0  0  0  0  0  0  0
   -2.9341    2.0962    0.0000 C   0  0  0  0  0  0  0  0  0  0  0  0
   -1.6654    1.2960    0.0000 C   0  0  0  0  0  0  0  0  0  0  0  0
   -1.7240   -0.2028    0.0000 O   0  0  0  0  0  0  0  0  0  0  0  0
   -0.3381    1.9947    0.0000 C   0  0  0  0  0  0  0  0  0  0  0  0
    0.9307    1.1946    0.0000 O   0  0  0  0  0  0  0  0  0  0  0  0
    2.2580    1.8933    0.0000 C   0  0  0  0  0  0  0  0  0  0  0  0
    2.3166    3.3921    0.0000 C   0  0  0  0  0  0  0  0  0  0  0  0
    3.6440    4.0908    0.0000 C   0  0  0  0  0  0  0  0  0  0  0  0
    4.9127    3.2907    0.0000 C   0  0  0  0  0  0  0  0  0  0  0  0
    4.8541    1.7918    0.0000 C   0  0  0  0  0  0  0  0  0  0  0  0
    3.5268    1.0931    0.0000 C   0  0  0  0  0  0  0  0  0  0  0  0
    3.4682   -0.4058    0.0000 C   0  0  0  0  0  0  0  0  0  0  0  0
    4.7370   -1.2059    0.0000 O   0  0  0  0  0  0  0  0  0  0  0  0
    2.1409   -1.1045    0.0000 C   0  0  0  0  0  0  0  0  0  0  0  0
    2.0823   -2.6033    0.0000 C   0  0  0  0  0  0  0  0  0  0  0  0
    0.7550   -3.3020    0.0000 C   0  0  0  0  0  0  0  0  0  0  0  0
   -0.5138   -2.5018    0.0000 C   0  0  0  0  0  0  0  0  0  0  0  0
   -1.8411   -3.2005    0.0000 C   0  0  0  0  0  0  0  0  0  0  0  0
   -1.8997   -4.6994    0.0000 C   0  0  0  0  0  0  0  0  0  0  0  0
   -0.6309   -5.4996    0.0000 C   0  0  0  0  0  0  0  0  0  0  0  0
    0.6964   -4.8009    0.0000 C   0  0  0  0  0  0  0  0  0  0  0  0
  1  2  1  0
  2  3  1  0
  3  4  1  0
  4  5  1  0
  5  6  1  0
  6  7  1  0
  6  8  1  0
  8  9  1  0
  9 10  1  0
 10 11  2  0
 11 12  1  0
 12 13  2  0
 13 14  1  0
 14 15  2  0
 15 16  1  0
 16 17  2  0
 16 18  1  0
 18 19  1  0
 19 20  1  0
 20 21  2  0
 21 22  1  0
 22 23  2  0
 23 24  1  0
 24 25  2  0
 15 10  1  0
 25 20  1  0
M  END
> <Identifier>
4932.0

> <DILI>
0

$$$$

     RDKit          2D

 13 13  0  0  0  0  0  0  0  0999 V2000
   -3.8971    0.2885    0.0000 C   0  0  0  0  0  0  0  0  0  0  0  0
   -2.5981   -0.4615    0.0000 C   0  0  0  0  0  0  0  0  0  0  0  0
   -2.5981   -1.9615    0.0000 C   0  0  0  0  0  0  0  0  0  0  0  0
   -1.2990    0.2885    0.0000 C   0  0  0  0  0  0  0  0  0  0  0  0
   -1.2990    1.7885    0.0000 C   0  0  0  0  0  0  0  0  0  0  0  0
    0.0000    2.5385    0.0000 C   0  0  0  0  0  0  0  0  0  0  0  0
    1.2990    1.7885    0.0000 C   0  0  0  0  0  0  0  0  0  0  0  0
    1.2990    0.2885    0.0000 C   0  0  0  0  0  0  0  0  0  0  0  0
    2.5981   -0.4615    0.0000 C   0  0  0  0  0  0  0  0  0  0  0  0
    2.5981   -1.9615    0.0000 C   0  0  0  0  0  0  0  0  0  0  0  0
    3.8971    0.2885    0.0000 C   0  0  0  0  0  0  0  0  0  0  0  0
   -0.0000   -0.4615    0.0000 C   0  0  0  0  0  0  0  0  0  0  0  0
   -0.0000   -1.9615    0.0000 O   0  0  0  0  0  0  0  0  0  0  0  0
  1  2  1  0
  2  3  1  0
  2  4  1  0
  4  5  2  0
  5  6  1  0
  6  7  2  0
  7  8  1  0
  8  9  1  0
  9 10  1  0
  9 11  1  0
  8 12  2  0
 12 13  1  0
 12  4  1  0
M  END
> <Identifier>
4943.0

> <DILI>
0

$$$$

     RDKit          2D

 19 20  0  0  0  0  0  0  0  0999 V2000
   -7.5601    0.7524    0.0000 C   0  0  0  0  0  0  0  0  0  0  0  0
   -6.3021   -0.0646    0.0000 C   0  0  0  0  0  0  0  0  0  0  0  0
   -6.3807   -1.5625    0.0000 C   0  0  0  0  0  0  0  0  0  0  0  0
   -4.9656    0.6163    0.0000 N   0  0  0  0  0  0  0  0  0  0  0  0
   -3.7076   -0.2007    0.0000 C   0  0  0  0  0  0  0  0  0  0  0  0
   -2.3711    0.4802    0.0000 C   0  0  0  0  0  0  0  0  0  0  0  0
   -2.2925    1.9781    0.0000 O   0  0  0  0  0  0  0  0  0  0  0  0
   -1.1131   -0.3369    0.0000 C   0  0  0  0  0  0  0  0  0  0  0  0
    0.2234    0.3440    0.0000 O   0  0  0  0  0  0  0  0  0  0  0  0
    1.4814   -0.4730    0.0000 C   0  0  0  0  0  0  0  0  0  0  0  0
    1.4028   -1.9709    0.0000 C   0  0  0  0  0  0  0  0  0  0  0  0
    2.6608   -2.7880    0.0000 C   0  0  0  0  0  0  0  0  0  0  0  0
    3.9973   -2.1071    0.0000 C   0  0  0  0  0  0  0  0  0  0  0  0
    4.0759   -0.6091    0.0000 C   0  0  0  0  0  0  0  0  0  0  0  0
    5.4125    0.0718    0.0000 C   0  0  0  0  0  0  0  0  0  0  0  0
    5.4911    1.5697    0.0000 C   0  0  0  0  0  0  0  0  0  0  0  0
    4.2331    2.3867    0.0000 C   0  0  0  0  0  0  0  0  0  0  0  0
    2.8966    1.7058    0.0000 C   0  0  0  0  0  0  0  0  0  0  0  0
    2.8180    0.2079    0.0000 C   0  0  0  0  0  0  0  0  0  0  0  0
  1  2  1  0
  2  3  1  0
  2  4  1  0
  4  5  1  0
  5  6  1  0
  6  7  1  0
  6  8  1  0
  8  9  1  0
  9 10  1  0
 10 11  2  0
 11 12  1  0
 12 13  2  0
 13 14  1  0
 14 15  2  0
 15 16  1  0
 16 17  2  0
 17 18  1  0
 18 19  2  0
 19 10  1  0
 19 14  1  0
M  END
> <Identifier>
4946.0

> <DILI>
0

$$$$

     RDKit          2D

 20 22  0  0  0  0  0  0  0  0999 V2000
   -5.9628   -2.5182    0.0000 C   0  0  0  0  0  0  0  0  0  0  0  0
   -4.8630   -1.4982    0.0000 N   0  0  0  0  0  0  0  0  0  0  0  0
   -3.4297   -1.9407    0.0000 C   0  0  0  0  0  0  0  0  0  0  0  0
   -2.3299   -0.9207    0.0000 C   0  0  0  0  0  0  0  0  0  0  0  0
   -0.8967   -1.3631    0.0000 C   0  0  0  0  0  0  0  0  0  0  0  0
    0.2031   -0.3431    0.0000 C   0  0  0  0  0  0  0  0  0  0  0  0
    1.5993   -0.8914    0.0000 C   0  0  0  0  0  0  0  0  0  0  0  0
    1.5990   -2.3914    0.0000 C   0  0  0  0  0  0  0  0  0  0  0  0
    2.8979   -3.1417    0.0000 C   0  0  0  0  0  0  0  0  0  0  0  0
    4.1971   -2.3920    0.0000 C   0  0  0  0  0  0  0  0  0  0  0  0
    4.1974   -0.8920    0.0000 C   0  0  0  0  0  0  0  0  0  0  0  0
    2.8985   -0.1417    0.0000 C   0  0  0  0  0  0  0  0  0  0  0  0
    3.1224    1.3415    0.0000 C   0  0  0  0  0  0  0  0  0  0  0  0
    2.1024    2.4413    0.0000 C   0  0  0  0  0  0  0  0  0  0  0  0
    0.6066    2.3295    0.0000 C   0  0  0  0  0  0  0  0  0  0  0  0
   -0.0439    3.6811    0.0000 C   0  0  0  0  0  0  0  0  0  0  0  0
   -1.5397    3.7935    0.0000 C   0  0  0  0  0  0  0  0  0  0  0  0
   -2.3850    2.5544    0.0000 C   0  0  0  0  0  0  0  0  0  0  0  0
   -1.7344    1.2028    0.0000 C   0  0  0  0  0  0  0  0  0  0  0  0
   -0.2387    1.0903    0.0000 C   0  0  0  0  0  0  0  0  0  0  0  0
  1  2  1  0
  2  3  1  0
  3  4  1  0
  4  5  1  0
  5  6  1  0
  6  7  1  0
  7  8  2  0
  8  9  1  0
  9 10  2  0
 10 11  1  0
 11 12  2  0
 12 13  1  0
 13 14  2  0
 14 15  1  0
 15 16  2  0
 16 17  1  0
 17 18  2  0
 18 19  1  0
 19 20  2  0
 20  6  1  0
 12  7  1  0
 20 15  1  0
M  END
> <Identifier>
4976.0

> <DILI>
0

$$$$

     RDKit          2D

 13 13  0  0  0  0  0  0  0  0999 V2000
   -4.5618    0.5760    0.0000 C   0  0  0  0  0  0  0  0  0  0  0  0
   -3.3901   -0.3605    0.0000 N   0  0  0  0  0  0  0  0  0  0  0  0
   -3.6153   -1.8435    0.0000 C   0  0  0  0  0  0  0  0  0  0  0  0
   -1.9932    0.1860    0.0000 C   0  0  0  0  0  0  0  0  0  0  0  0
   -1.7680    1.6690    0.0000 O   0  0  0  0  0  0  0  0  0  0  0  0
   -0.8215   -0.7506    0.0000 O   0  0  0  0  0  0  0  0  0  0  0  0
    0.5754   -0.2041    0.0000 C   0  0  0  0  0  0  0  0  0  0  0  0
    0.8006    1.2789    0.0000 C   0  0  0  0  0  0  0  0  0  0  0  0
    2.1976    1.8254    0.0000 C   0  0  0  0  0  0  0  0  0  0  0  0
    3.3693    0.8888    0.0000 C   0  0  0  0  0  0  0  0  0  0  0  0
    3.1441   -0.5942    0.0000 N   0  0  0  0  0  4  0  0  0  0  0  0
    4.3158   -1.5307    0.0000 C   0  0  0  0  0  0  0  0  0  0  0  0
    1.7472   -1.1406    0.0000 C   0  0  0  0  0  0  0  0  0  0  0  0
  1  2  1  0
  2  3  1  0
  2  4  1  0
  4  5  2  0
  4  6  1  0
  6  7  1  0
  7  8  2  0
  8  9  1  0
  9 10  2  0
 10 11  1  0
 11 12  1  0
 11 13  2  0
 13  7  1  0
M  CHG  1  11   1
M  END
> <Identifier>
4991.0

> <DILI>
0

$$$$

     RDKit          2D

 21 22  0  0  0  0  0  0  0  0999 V2000
   -6.7266    0.6565    0.0000 C   0  0  0  0  0  0  0  0  0  0  0  0
   -5.5694   -0.2979    0.0000 O   0  0  0  0  0  0  0  0  0  0  0  0
   -4.1643    0.2271    0.0000 C   0  0  0  0  0  0  0  0  0  0  0  0
   -3.9164    1.7065    0.0000 C   0  0  0  0  0  0  0  0  0  0  0  0
   -2.5112    2.2314    0.0000 C   0  0  0  0  0  0  0  0  0  0  0  0
   -1.3540    1.2771    0.0000 C   0  0  0  0  0  0  0  0  0  0  0  0
    0.0511    1.8021    0.0000 C   0  0  0  0  0  0  0  0  0  0  0  0
    1.2083    0.8477    0.0000 N   0  0  0  0  0  0  0  0  0  0  0  0
    2.6134    1.3727    0.0000 C   0  0  0  0  0  0  0  0  0  0  0  0
    3.7707    0.4183    0.0000 C   0  0  0  0  0  0  0  0  0  0  0  0
    5.1758    0.9433    0.0000 N   0  0  0  0  0  0  0  0  0  0  0  0
    6.3330   -0.0111    0.0000 C   0  0  0  0  0  0  0  0  0  0  0  0
    5.4237    2.4226    0.0000 C   0  0  0  0  0  0  0  0  0  0  0  0
    0.9604   -0.6317    0.0000 C   0  0  0  0  0  0  0  0  0  0  0  0
   -0.4447   -1.1567    0.0000 C   0  0  0  0  0  0  0  0  0  0  0  0
   -0.6926   -2.6361    0.0000 C   0  0  0  0  0  0  0  0  0  0  0  0
    0.4646   -3.5904    0.0000 C   0  0  0  0  0  0  0  0  0  0  0  0
    1.8697   -3.0655    0.0000 C   0  0  0  0  0  0  0  0  0  0  0  0
    2.1176   -1.5861    0.0000 N   0  0  0  0  0  0  0  0  0  0  0  0
   -1.6019   -0.2023    0.0000 C   0  0  0  0  0  0  0  0  0  0  0  0
   -3.0071   -0.7273    0.0000 C   0  0  0  0  0  0  0  0  0  0  0  0
  1  2  1  0
  2  3  1  0
  3  4  2  0
  4  5  1  0
  5  6  2  0
  6  7  1  0
  7  8  1  0
  8  9  1  0
  9 10  1  0
 10 11  1  0
 11 12  1  0
 11 13  1  0
  8 14  1  0
 14 15  2  0
 15 16  1  0
 16 17  2  0
 17 18  1  0
 18 19  2  0
  6 20  1  0
 20 21  2  0
 21  3  1  0
 19 14  1  0
M  END
> <Identifier>
4992.0

> <DILI>
0

$$$$

     RDKit          2D

 17 18  0  0  0  0  0  0  0  0999 V2000
   -1.5285   -3.5873    0.0000 C   0  0  0  0  0  0  0  0  0  0  0  0
   -0.7063   -2.3327    0.0000 C   0  0  0  0  0  0  0  0  0  0  0  0
   -1.3818   -0.9934    0.0000 C   0  0  0  0  0  0  0  0  0  0  0  0
   -2.8794   -0.9087    0.0000 N   0  0  0  0  0  0  0  0  0  0  0  0
   -3.5549    0.4306    0.0000 C   0  0  0  0  0  0  0  0  0  0  0  0
   -5.0525    0.5153    0.0000 N   0  0  0  0  0  0  0  0  0  0  0  0
   -2.7327    1.6852    0.0000 N   0  0  0  0  0  0  0  0  0  0  0  0
   -1.2351    1.6006    0.0000 C   0  0  0  0  0  0  0  0  0  0  0  0
   -0.4130    2.8552    0.0000 N   0  0  0  0  0  0  0  0  0  0  0  0
   -0.5597    0.2613    0.0000 C   0  0  0  0  0  0  0  0  0  0  0  0
    0.9379    0.1766    0.0000 C   0  0  0  0  0  0  0  0  0  0  0  0
    1.6134   -1.1627    0.0000 C   0  0  0  0  0  0  0  0  0  0  0  0
    3.1110   -1.2474    0.0000 C   0  0  0  0  0  0  0  0  0  0  0  0
    3.9332    0.0072    0.0000 C   0  0  0  0  0  0  0  0  0  0  0  0
    5.4308   -0.0775    0.0000 Cl  0  0  0  0  0  0  0  0  0  0  0  0
    3.2577    1.3465    0.0000 C   0  0  0  0  0  0  0  0  0  0  0  0
    1.7601    1.4312    0.0000 C   0  0  0  0  0  0  0  0  0  0  0  0
  1  2  1  0
  2  3  1  0
  3  4  2  0
  4  5  1  0
  5  6  1  0
  5  7  2  0
  7  8  1  0
  8  9  1  0
  8 10  2  0
 10 11  1  0
 11 12  2  0
 12 13  1  0
 13 14  2  0
 14 15  1  0
 14 16  1  0
 16 17  2  0
 10  3  1  0
 17 11  1  0
M  END
> <Identifier>
4993.0

> <DILI>
1

$$$$

     RDKit          2D

 15 16  0  0  0  0  0  0  0  0999 V2000
   -5.4577    0.3304    0.0000 N   0  0  0  0  0  0  0  0  0  0  0  0
   -3.9661    0.1714    0.0000 C   0  0  0  0  0  0  0  0  0  0  0  0
   -3.2181   -1.1287    0.0000 N   0  0  0  0  0  0  0  0  0  0  0  0
   -1.7504   -0.8191    0.0000 C   0  0  0  0  0  0  0  0  0  0  0  0
   -0.5382   -1.7025    0.0000 C   0  0  0  0  0  0  0  0  0  0  0  0
    0.8331   -1.0945    0.0000 C   0  0  0  0  0  0  0  0  0  0  0  0
    0.9921    0.3971    0.0000 C   0  0  0  0  0  0  0  0  0  0  0  0
    2.3633    1.0051    0.0000 O   0  0  0  0  0  0  0  0  0  0  0  0
    3.5755    0.1216    0.0000 C   0  0  0  0  0  0  0  0  0  0  0  0
    4.7877   -0.7619    0.0000 F   0  0  0  0  0  0  0  0  0  0  0  0
    4.4590    1.3338    0.0000 F   0  0  0  0  0  0  0  0  0  0  0  0
    2.6920   -1.0906    0.0000 F   0  0  0  0  0  0  0  0  0  0  0  0
   -0.2201    1.2806    0.0000 C   0  0  0  0  0  0  0  0  0  0  0  0
   -1.5914    0.6725    0.0000 C   0  0  0  0  0  0  0  0  0  0  0  0
   -2.9608    1.2846    0.0000 S   0  0  0  0  0  0  0  0  0  0  0  0
  1  2  1  0
  2  3  2  0
  3  4  1  0
  4  5  2  0
  5  6  1  0
  6  7  2  0
  7  8  1  0
  8  9  1  0
  9 10  1  0
  9 11  1  0
  9 12  1  0
  7 13  1  0
 13 14  2  0
 14 15  1  0
 15  2  1  0
 14  4  1  0
M  END
> <Identifier>
5070.0

> <DILI>
1

$$$$

     RDKit          2D

 30 34  0  0  0  0  0  0  0  0999 V2000
    3.0971    2.5503    0.0000 C   0  0  0  0  0  0  0  0  0  0  0  0
    4.1869    1.5196    0.0000 C   0  0  0  0  0  0  0  0  0  0  0  0
    5.6244    1.9480    0.0000 N   0  0  0  0  0  0  0  0  0  0  0  0
    6.7141    0.9172    0.0000 C   0  0  0  0  0  0  0  0  0  0  0  0
    6.3664   -0.5419    0.0000 N   0  0  0  0  0  0  0  0  0  0  0  0
    4.9288   -0.9703    0.0000 C   0  0  0  0  0  0  0  0  0  0  0  0
    4.5810   -2.4294    0.0000 O   0  0  0  0  0  0  0  0  0  0  0  0
    3.8391    0.0605    0.0000 C   0  0  0  0  0  0  0  0  0  0  0  0
    2.4016   -0.3679    0.0000 C   0  0  0  0  0  0  0  0  0  0  0  0
    1.3118    0.6628    0.0000 C   0  0  0  0  0  0  0  0  0  0  0  0
   -0.1257    0.2345    0.0000 N   0  0  0  0  0  0  0  0  0  0  0  0
   -1.2155    1.2652    0.0000 C   0  0  0  0  0  0  0  0  0  0  0  0
   -2.6530    0.8368    0.0000 C   0  0  0  0  0  0  0  0  0  0  0  0
   -3.0008   -0.6223    0.0000 C   0  0  0  0  0  0  0  0  0  0  0  0
   -4.4383   -1.0506    0.0000 C   0  0  0  0  0  0  0  0  0  0  0  0
   -4.9367   -2.4654    0.0000 N   0  0  0  0  0  0  0  0  0  0  0  0
   -6.4363   -2.4286    0.0000 O   0  0  0  0  0  0  0  0  0  0  0  0
   -6.8646   -0.9911    0.0000 C   0  0  0  0  0  0  0  0  0  0  0  0
   -8.2196   -0.3475    0.0000 C   0  0  0  0  0  0  0  0  0  0  0  0
   -8.3397    1.1477    0.0000 C   0  0  0  0  0  0  0  0  0  0  0  0
   -9.6946    1.7912    0.0000 F   0  0  0  0  0  0  0  0  0  0  0  0
   -7.1049    1.9993    0.0000 C   0  0  0  0  0  0  0  0  0  0  0  0
   -5.7500    1.3557    0.0000 C   0  0  0  0  0  0  0  0  0  0  0  0
   -5.6298   -0.1395    0.0000 C   0  0  0  0  0  0  0  0  0  0  0  0
   -1.9110   -1.6530    0.0000 C   0  0  0  0  0  0  0  0  0  0  0  0
   -0.4735   -1.2247    0.0000 C   0  0  0  0  0  0  0  0  0  0  0  0
    7.4561   -1.5727    0.0000 C   0  0  0  0  0  0  0  0  0  0  0  0
    8.8936   -1.1443    0.0000 C   0  0  0  0  0  0  0  0  0  0  0  0
    9.2414    0.3148    0.0000 C   0  0  0  0  0  0  0  0  0  0  0  0
    8.1517    1.3456    0.0000 C   0  0  0  0  0  0  0  0  0  0  0  0
  1  2  1  0
  2  3  1  0
  3  4  2  0
  4  5  1  0
  5  6  1  0
  6  7  2  0
  6  8  1  0
  8  9  1  0
  9 10  1  0
 10 11  1  0
 11 12  1  0
 12 13  1  0
 13 14  1  0
 14 15  1  0
 15 16  2  0
 16 17  1  0
 17 18  1  0
 18 19  2  0
 19 20  1  0
 20 21  1  0
 20 22  2  0
 22 23  1  0
 23 24  2  0
 14 25  1  0
 25 26  1  0
  5 27  1  0
 27 28  1  0
 28 29  1  0
 29 30  1  0
  8  2  2  0
 26 11  1  0
 30  4  1  0
 24 15  1  0
 24 18  1  0
M  END
> <Identifier>
5073.0

> <DILI>
1

$$$$

     RDKit          2D

 10 10  0  0  0  0  0  0  0  0999 V2000
    2.4688   -1.6844    0.0000 N   0  0  0  0  0  0  0  0  0  0  0  0
    1.7848   -0.3495    0.0000 C   0  0  0  0  0  0  0  0  0  0  0  0
    2.5988    0.9104    0.0000 O   0  0  0  0  0  0  0  0  0  0  0  0
    0.2866   -0.2745    0.0000 C   0  0  0  0  0  0  0  0  0  0  0  0
   -0.5274   -1.5344    0.0000 C   0  0  0  0  0  0  0  0  0  0  0  0
   -2.0255   -1.4594    0.0000 C   0  0  0  0  0  0  0  0  0  0  0  0
   -2.7096   -0.1244    0.0000 C   0  0  0  0  0  0  0  0  0  0  0  0
   -1.8956    1.1355    0.0000 C   0  0  0  0  0  0  0  0  0  0  0  0
   -0.3975    1.0604    0.0000 C   0  0  0  0  0  0  0  0  0  0  0  0
    0.4166    2.3203    0.0000 O   0  0  0  0  0  0  0  0  0  0  0  0
  1  2  1  0
  2  3  2  0
  2  4  1  0
  4  5  2  0
  5  6  1  0
  6  7  2  0
  7  8  1  0
  8  9  2  0
  9 10  1  0
  9  4  1  0
M  END
> <Identifier>
5147.0

> <DILI>
0

$$$$

     RDKit          2D

 22 25  0  0  0  0  0  0  0  0999 V2000
   -2.2390    0.2572    0.0000 C   0  0  0  0  0  0  0  0  0  0  0  0
   -3.0295    0.1545    0.0000 N   0  0  0  0  0  0  0  0  0  0  0  0
   -4.2933    0.9625    0.0000 C   0  0  0  0  0  0  0  0  0  0  0  0
   -2.9591    1.6692    0.0000 C   0  0  0  0  0  0  0  0  0  0  0  0
   -1.7868    0.7335    0.0000 C   0  0  0  0  0  0  0  0  0  0  0  0
   -0.3902    1.2809    0.0000 O   0  0  0  0  0  0  0  0  0  0  0  0
    0.7821    0.3452    0.0000 C   0  0  0  0  0  0  0  0  0  0  0  0
    0.5580   -1.1379    0.0000 O   0  0  0  0  0  0  0  0  0  0  0  0
    2.1787    0.8927    0.0000 C   0  0  0  0  0  0  0  0  0  0  0  0
    2.4028    2.3759    0.0000 C   0  0  0  0  0  0  0  0  0  0  0  0
    3.7993    2.9233    0.0000 O   0  0  0  0  0  0  0  0  0  0  0  0
    3.3510   -0.0430    0.0000 C   0  0  0  0  0  0  0  0  0  0  0  0
    3.1269   -1.5262    0.0000 C   0  0  0  0  0  0  0  0  0  0  0  0
    4.2992   -2.4619    0.0000 C   0  0  0  0  0  0  0  0  0  0  0  0
    5.6958   -1.9144    0.0000 C   0  0  0  0  0  0  0  0  0  0  0  0
    5.9199   -0.4313    0.0000 C   0  0  0  0  0  0  0  0  0  0  0  0
    4.7476    0.5044    0.0000 C   0  0  0  0  0  0  0  0  0  0  0  0
   -2.0109   -0.7497    0.0000 C   0  0  0  0  0  0  0  0  0  0  0  0
   -3.4075   -1.2971    0.0000 C   0  0  0  0  0  0  0  0  0  0  0  0
   -4.9048   -1.3862    0.0000 C   0  0  0  0  0  0  0  0  0  0  0  0
   -6.3880   -1.1621    0.0000 O   0  0  0  0  0  0  0  0  0  0  0  0
   -5.4523    0.0103    0.0000 C   0  0  0  0  0  0  0  0  0  0  0  0
  1  2  1  0
  2  3  1  0
  3  4  1  0
  4  5  1  0
  5  6  1  0
  6  7  1  0
  7  8  2  0
  7  9  1  0
  9 10  1  0
 10 11  1  0
  9 12  1  0
 12 13  2  0
 13 14  1  0
 14 15  2  0
 15 16  1  0
 16 17  2  0
  5 18  1  0
 18 19  1  0
 19 20  1  0
 20 21  1  0
 21 22  1  0
 19  2  1  0
 22 20  1  0
 22  3  1  0
 17 12  1  0
M  END
> <Identifier>
5184.0

> <DILI>
0

$$$$

     RDKit          2D

  2  0  0  0  0  0  0  0  0  0999 V2000
    1.0000    0.0000    0.0000 Cl  0  0  0  0  0 15  0  0  0  0  0  0
    0.0000    0.0000    0.0000 Na  0  0  0  0  0 15  0  0  0  0  0  0
M  CHG  2   1  -1   2   1
M  END
> <Identifier>
5234.0

> <DILI>
0

$$$$

     RDKit          2D

 37 41  0  0  0  0  0  0  0  0999 V2000
   -7.7450    1.8017    0.0000 C   0  0  0  0  0  0  0  0  0  0  0  0
   -6.2611    2.0209    0.0000 C   0  0  0  0  0  0  0  0  0  0  0  0
   -5.7090    3.4156    0.0000 C   0  0  0  0  0  0  0  0  0  0  0  0
   -4.2251    3.6347    0.0000 C   0  0  0  0  0  0  0  0  0  0  0  0
   -3.2933    2.4592    0.0000 C   0  0  0  0  0  0  0  0  0  0  0  0
   -1.8094    2.6784    0.0000 N   0  0  0  0  0  0  0  0  0  0  0  0
   -0.8777    1.5029    0.0000 C   0  0  0  0  0  0  0  0  0  0  0  0
   -1.4298    0.1082    0.0000 O   0  0  0  0  0  0  0  0  0  0  0  0
    0.6062    1.7221    0.0000 C   0  0  0  0  0  0  0  0  0  0  0  0
    1.5380    0.5466    0.0000 C   0  0  0  0  0  0  0  0  0  0  0  0
    3.0219    0.7658    0.0000 C   0  0  0  0  0  0  0  0  0  0  0  0
    3.5740    2.1604    0.0000 C   0  0  0  0  0  0  0  0  0  0  0  0
    5.0579    2.3796    0.0000 C   0  0  0  0  0  0  0  0  0  0  0  0
    5.9897    1.2041    0.0000 N   0  0  0  0  0  0  0  0  0  0  0  0
    5.4376   -0.1906    0.0000 C   0  0  0  0  0  0  0  0  0  0  0  0
    6.3693   -1.3661    0.0000 C   0  0  0  0  0  0  0  0  0  0  0  0
    7.8532   -1.1469    0.0000 N   0  0  0  0  0  0  0  0  0  0  0  0
    8.7850   -2.3224    0.0000 C   0  0  0  0  0  0  0  0  0  0  0  0
    8.4054    0.2478    0.0000 C   0  0  0  0  0  0  0  0  0  0  0  0
    7.4736    1.4233    0.0000 C   0  0  0  0  0  0  0  0  0  0  0  0
    2.6423    3.3360    0.0000 C   0  0  0  0  0  0  0  0  0  0  0  0
    1.1584    3.1168    0.0000 C   0  0  0  0  0  0  0  0  0  0  0  0
   -3.8455    1.0645    0.0000 C   0  0  0  0  0  0  0  0  0  0  0  0
   -5.3294    0.8454    0.0000 C   0  0  0  0  0  0  0  0  0  0  0  0
   -5.8815   -0.5493    0.0000 N   0  0  0  0  0  0  0  0  0  0  0  0
   -4.9497   -1.7248    0.0000 C   0  0  0  0  0  0  0  0  0  0  0  0
   -5.5019   -3.1195    0.0000 N   0  0  0  0  0  0  0  0  0  0  0  0
   -4.5701   -4.2950    0.0000 C   0  0  0  0  0  0  0  0  0  0  0  0
   -3.0862   -4.0758    0.0000 C   0  0  0  0  0  0  0  0  0  0  0  0
   -2.5341   -2.6811    0.0000 C   0  0  0  0  0  0  0  0  0  0  0  0
   -1.0502   -2.4620    0.0000 C   0  0  0  0  0  0  0  0  0  0  0  0
   -0.1184   -3.6375    0.0000 C   0  0  0  0  0  0  0  0  0  0  0  0
    1.3655   -3.4183    0.0000 C   0  0  0  0  0  0  0  0  0  0  0  0
    1.9176   -2.0236    0.0000 C   0  0  0  0  0  0  0  0  0  0  0  0
    0.9859   -0.8481    0.0000 N   0  0  0  0  0  0  0  0  0  0  0  0
   -0.4980   -1.0673    0.0000 C   0  0  0  0  0  0  0  0  0  0  0  0
   -3.4658   -1.5056    0.0000 N   0  0  0  0  0  0  0  0  0  0  0  0
  1  2  1  0
  2  3  2  0
  3  4  1  0
  4  5  2  0
  5  6  1  0
  6  7  1  0
  7  8  2  0
  7  9  1  0
  9 10  2  0
 10 11  1  0
 11 12  2  0
 12 13  1  0
 13 14  1  0
 14 15  1  0
 15 16  1  0
 16 17  1  0
 17 18  1  0
 17 19  1  0
 19 20  1  0
 12 21  1  0
 21 22  2  0
  5 23  1  0
 23 24  2  0
 24 25  1  0
 25 26  1  0
 26 27  2  0
 27 28  1  0
 28 29  2  0
 29 30  1  0
 30 31  1  0
 31 32  2  0
 32 33  1  0
 33 34  2  0
 34 35  1  0
 35 36  2  0
 30 37  2  0
 24  2  1  0
 37 26  1  0
 22  9  1  0
 36 31  1  0
 20 14  1  0
M  END
> <Identifier>
5291.0

> <DILI>
1

$$$$

     RDKit          2D

 20 19  0  0  0  0  0  0  0  0999 V2000
   -7.8224    1.4106    0.0000 C   0  0  0  0  0  0  0  0  0  0  0  0
   -7.1542    0.0677    0.0000 N   0  0  0  0  0  4  0  0  0  0  0  0
   -6.4860   -1.2752    0.0000 C   0  0  0  0  0  0  0  0  0  0  0  0
   -8.4972   -0.6005    0.0000 C   0  0  0  0  0  0  0  0  0  0  0  0
   -5.8113    0.7359    0.0000 C   0  0  0  0  0  0  0  0  0  0  0  0
   -4.5611   -0.0930    0.0000 C   0  0  0  0  0  0  0  0  0  0  0  0
   -3.2182    0.5752    0.0000 O   0  0  0  0  0  0  0  0  0  0  0  0
   -1.9680   -0.2537    0.0000 C   0  0  0  0  0  0  0  0  0  0  0  0
   -2.0608   -1.7509    0.0000 O   0  0  0  0  0  0  0  0  0  0  0  0
   -0.6251    0.4145    0.0000 C   0  0  0  0  0  0  0  0  0  0  0  0
    0.6251   -0.4145    0.0000 C   0  0  0  0  0  0  0  0  0  0  0  0
    1.9680    0.2537    0.0000 C   0  0  0  0  0  0  0  0  0  0  0  0
    2.0608    1.7509    0.0000 O   0  0  0  0  0  0  0  0  0  0  0  0
    3.2182   -0.5752    0.0000 O   0  0  0  0  0  0  0  0  0  0  0  0
    4.5611    0.0930    0.0000 C   0  0  0  0  0  0  0  0  0  0  0  0
    5.8113   -0.7359    0.0000 C   0  0  0  0  0  0  0  0  0  0  0  0
    7.1542   -0.0677    0.0000 N   0  0  0  0  0  4  0  0  0  0  0  0
    7.8224   -1.4106    0.0000 C   0  0  0  0  0  0  0  0  0  0  0  0
    6.4860    1.2752    0.0000 C   0  0  0  0  0  0  0  0  0  0  0  0
    8.4972    0.6005    0.0000 C   0  0  0  0  0  0  0  0  0  0  0  0
  1  2  1  0
  2  3  1  0
  2  4  1  0
  2  5  1  0
  5  6  1  0
  6  7  1  0
  7  8  1  0
  8  9  2  0
  8 10  1  0
 10 11  1  0
 11 12  1  0
 12 13  2  0
 12 14  1  0
 14 15  1  0
 15 16  1  0
 16 17  1  0
 17 18  1  0
 17 19  1  0
 17 20  1  0
M  CHG  2   2   1  17   1
M  END
> <Identifier>
5314.0

> <DILI>
0

$$$$

     RDKit          2D

 17 18  0  0  0  0  0  0  0  0999 V2000
   -6.1409   -0.5196    0.0000 C   0  0  0  0  0  0  0  0  0  0  0  0
   -4.6440   -0.4229    0.0000 C   0  0  0  0  0  0  0  0  0  0  0  0
   -3.6860   -1.5771    0.0000 N   0  0  0  0  0  0  0  0  0  0  0  0
   -2.2922   -1.0226    0.0000 N   0  0  0  0  0  0  0  0  0  0  0  0
   -2.3889    0.4743    0.0000 C   0  0  0  0  0  0  0  0  0  0  0  0
   -1.2348    1.4324    0.0000 N   0  0  0  0  0  0  0  0  0  0  0  0
    0.1720    0.9119    0.0000 S   0  0  0  0  0  0  0  0  0  0  0  0
    0.6925    2.3187    0.0000 O   0  0  0  0  0  0  0  0  0  0  0  0
   -0.3485   -0.4949    0.0000 O   0  0  0  0  0  0  0  0  0  0  0  0
    1.5788    0.3914    0.0000 C   0  0  0  0  0  0  0  0  0  0  0  0
    1.8315   -1.0872    0.0000 C   0  0  0  0  0  0  0  0  0  0  0  0
    3.2383   -1.6077    0.0000 C   0  0  0  0  0  0  0  0  0  0  0  0
    4.3924   -0.6496    0.0000 C   0  0  0  0  0  0  0  0  0  0  0  0
    5.7992   -1.1701    0.0000 N   0  0  0  0  0  0  0  0  0  0  0  0
    4.1398    0.8289    0.0000 C   0  0  0  0  0  0  0  0  0  0  0  0
    2.7330    1.3494    0.0000 C   0  0  0  0  0  0  0  0  0  0  0  0
   -3.8424    0.8449    0.0000 S   0  0  0  0  0  0  0  0  0  0  0  0
  1  2  1  0
  2  3  2  0
  3  4  1  0
  4  5  2  0
  5  6  1  0
  6  7  1  0
  7  8  2  0
  7  9  2  0
  7 10  1  0
 10 11  2  0
 11 12  1  0
 12 13  2  0
 13 14  1  0
 13 15  1  0
 15 16  2  0
  5 17  1  0
 17  2  1  0
 16 10  1  0
M  END
> <Identifier>
5328.0

> <DILI>
1

$$$$

     RDKit          2D

 17 18  0  0  0  0  0  0  0  0999 V2000
   -4.3588   -2.6033    0.0000 C   0  0  0  0  0  0  0  0  0  0  0  0
   -3.8939   -1.1772    0.0000 C   0  0  0  0  0  0  0  0  0  0  0  0
   -2.4669   -0.7150    0.0000 C   0  0  0  0  0  0  0  0  0  0  0  0
   -2.4654    0.7850    0.0000 C   0  0  0  0  0  0  0  0  0  0  0  0
   -1.2511    1.6655    0.0000 N   0  0  0  0  0  0  0  0  0  0  0  0
    0.1187    1.0541    0.0000 S   0  0  0  0  0  0  0  0  0  0  0  0
    0.7301    2.4238    0.0000 O   0  0  0  0  0  0  0  0  0  0  0  0
   -0.4928   -0.3157    0.0000 O   0  0  0  0  0  0  0  0  0  0  0  0
    1.4884    0.4426    0.0000 C   0  0  0  0  0  0  0  0  0  0  0  0
    1.6437   -1.0493    0.0000 C   0  0  0  0  0  0  0  0  0  0  0  0
    3.0135   -1.6607    0.0000 C   0  0  0  0  0  0  0  0  0  0  0  0
    4.2278   -0.7802    0.0000 C   0  0  0  0  0  0  0  0  0  0  0  0
    5.5976   -1.3916    0.0000 N   0  0  0  0  0  0  0  0  0  0  0  0
    4.0725    0.7117    0.0000 C   0  0  0  0  0  0  0  0  0  0  0  0
    2.7028    1.3231    0.0000 C   0  0  0  0  0  0  0  0  0  0  0  0
   -3.8916    1.2499    0.0000 N   0  0  0  0  0  0  0  0  0  0  0  0
   -4.7744    0.0372    0.0000 O   0  0  0  0  0  0  0  0  0  0  0  0
  1  2  1  0
  2  3  2  0
  3  4  1  0
  4  5  1  0
  5  6  1  0
  6  7  2  0
  6  8  2  0
  6  9  1  0
  9 10  2  0
 10 11  1  0
 11 12  2  0
 12 13  1  0
 12 14  1  0
 14 15  2  0
  4 16  2  0
 16 17  1  0
 17  2  1  0
 15  9  1  0
M  END
> <Identifier>
5329.0

> <DILI>
1

$$$$

     RDKit          2D

 11 11  0  0  0  0  0  0  0  0999 V2000
    3.9545    0.0000    0.0000 N   0  0  0  0  0  0  0  0  0  0  0  0
    2.4545   -0.0000    0.0000 C   0  0  0  0  0  0  0  0  0  0  0  0
    1.7045   -1.2990    0.0000 C   0  0  0  0  0  0  0  0  0  0  0  0
    0.2045   -1.2990    0.0000 C   0  0  0  0  0  0  0  0  0  0  0  0
   -0.5455    0.0000    0.0000 C   0  0  0  0  0  0  0  0  0  0  0  0
   -2.0455    0.0000    0.0000 S   0  0  0  0  0  0  0  0  0  0  0  0
   -3.5455   -0.0000    0.0000 N   0  0  0  0  0  0  0  0  0  0  0  0
   -2.0455    1.5000    0.0000 O   0  0  0  0  0  0  0  0  0  0  0  0
   -2.0455   -1.5000    0.0000 O   0  0  0  0  0  0  0  0  0  0  0  0
    0.2045    1.2990    0.0000 C   0  0  0  0  0  0  0  0  0  0  0  0
    1.7045    1.2990    0.0000 C   0  0  0  0  0  0  0  0  0  0  0  0
  1  2  1  0
  2  3  2  0
  3  4  1  0
  4  5  2  0
  5  6  1  0
  6  7  1  0
  6  8  2  0
  6  9  2  0
  5 10  1  0
 10 11  2  0
 11  2  1  0
M  END
> <Identifier>
5333.0

> <DILI>
1

$$$$

     RDKit          2D

 16 17  0  0  0  0  0  0  0  0999 V2000
    5.4443   -1.0645    0.0000 N   0  0  0  0  0  0  0  0  0  0  0  0
    4.0247   -0.5799    0.0000 C   0  0  0  0  0  0  0  0  0  0  0  0
    2.8953   -1.5671    0.0000 C   0  0  0  0  0  0  0  0  0  0  0  0
    1.4757   -1.0825    0.0000 C   0  0  0  0  0  0  0  0  0  0  0  0
    1.1855    0.3892    0.0000 C   0  0  0  0  0  0  0  0  0  0  0  0
   -0.2341    0.8737    0.0000 S   0  0  0  0  0  0  0  0  0  0  0  0
    0.2505    2.2933    0.0000 O   0  0  0  0  0  0  0  0  0  0  0  0
   -0.7186   -0.5459    0.0000 O   0  0  0  0  0  0  0  0  0  0  0  0
   -1.6536    1.3583    0.0000 N   0  0  0  0  0  0  0  0  0  0  0  0
   -2.7831    0.3712    0.0000 C   0  0  0  0  0  0  0  0  0  0  0  0
   -2.6483   -1.1228    0.0000 N   0  0  0  0  0  0  0  0  0  0  0  0
   -4.0275   -1.7126    0.0000 C   0  0  0  0  0  0  0  0  0  0  0  0
   -5.0146   -0.5831    0.0000 C   0  0  0  0  0  0  0  0  0  0  0  0
   -4.2455    0.7047    0.0000 S   0  0  0  0  0  0  0  0  0  0  0  0
    2.3150    1.3763    0.0000 C   0  0  0  0  0  0  0  0  0  0  0  0
    3.7345    0.8917    0.0000 C   0  0  0  0  0  0  0  0  0  0  0  0
  1  2  1  0
  2  3  2  0
  3  4  1  0
  4  5  2  0
  5  6  1  0
  6  7  2  0
  6  8  2  0
  6  9  1  0
  9 10  1  0
 10 11  2  0
 11 12  1  0
 12 13  2  0
 13 14  1  0
  5 15  1  0
 15 16  2  0
 16  2  1  0
 14 10  1  0
M  END
> <Identifier>
5340.0

> <DILI>
1

$$$$

     RDKit          2D

 29 32  0  0  0  0  0  0  0  0999 V2000
   -1.0541   -3.3877    0.0000 O   0  0  0  0  0  0  0  0  0  0  0  0
   -0.9501   -1.8913    0.0000 C   0  0  0  0  0  0  0  0  0  0  0  0
    0.3216   -1.0958    0.0000 C   0  0  0  0  0  0  0  0  0  0  0  0
    1.7126   -1.6571    0.0000 C   0  0  0  0  0  0  0  0  0  0  0  0
    2.8942   -0.7331    0.0000 C   0  0  0  0  0  0  0  0  0  0  0  0
    4.2852   -1.2944    0.0000 S   0  0  0  0  0  0  0  0  0  0  0  0
    4.4947   -2.7797    0.0000 O   0  0  0  0  0  0  0  0  0  0  0  0
    5.4668   -0.3703    0.0000 C   0  0  0  0  0  0  0  0  0  0  0  0
    6.8579   -0.9316    0.0000 C   0  0  0  0  0  0  0  0  0  0  0  0
    8.0395   -0.0076    0.0000 C   0  0  0  0  0  0  0  0  0  0  0  0
    7.8300    1.4777    0.0000 C   0  0  0  0  0  0  0  0  0  0  0  0
    6.4390    2.0390    0.0000 C   0  0  0  0  0  0  0  0  0  0  0  0
    5.2574    1.1150    0.0000 C   0  0  0  0  0  0  0  0  0  0  0  0
   -0.0420    0.3594    0.0000 C   0  0  0  0  0  0  0  0  0  0  0  0
    0.9217    1.5089    0.0000 O   0  0  0  0  0  0  0  0  0  0  0  0
   -1.5383    0.4634    0.0000 N   0  0  0  0  0  0  0  0  0  0  0  0
   -2.3338    1.7351    0.0000 C   0  0  0  0  0  0  0  0  0  0  0  0
   -1.6302    3.0599    0.0000 C   0  0  0  0  0  0  0  0  0  0  0  0
   -2.4256    4.3316    0.0000 C   0  0  0  0  0  0  0  0  0  0  0  0
   -3.9247    4.2785    0.0000 C   0  0  0  0  0  0  0  0  0  0  0  0
   -4.6283    2.9538    0.0000 C   0  0  0  0  0  0  0  0  0  0  0  0
   -3.8329    1.6821    0.0000 C   0  0  0  0  0  0  0  0  0  0  0  0
   -2.0996   -0.9276    0.0000 N   0  0  0  0  0  0  0  0  0  0  0  0
   -3.5549   -1.2912    0.0000 C   0  0  0  0  0  0  0  0  0  0  0  0
   -4.5974   -0.2126    0.0000 C   0  0  0  0  0  0  0  0  0  0  0  0
   -6.0527   -0.5762    0.0000 C   0  0  0  0  0  0  0  0  0  0  0  0
   -6.4655   -2.0182    0.0000 C   0  0  0  0  0  0  0  0  0  0  0  0
   -5.4230   -3.0968    0.0000 C   0  0  0  0  0  0  0  0  0  0  0  0
   -3.9677   -2.7332    0.0000 C   0  0  0  0  0  0  0  0  0  0  0  0
  1  2  2  0
  2  3  1  0
  3  4  1  0
  4  5  1  0
  5  6  1  0
  6  7  2  0
  6  8  1  0
  8  9  2  0
  9 10  1  0
 10 11  2  0
 11 12  1  0
 12 13  2  0
  3 14  1  0
 14 15  2  0
 14 16  1  0
 16 17  1  0
 17 18  2  0
 18 19  1  0
 19 20  2  0
 20 21  1  0
 21 22  2  0
 16 23  1  0
 23 24  1  0
 24 25  2  0
 25 26  1  0
 26 27  2  0
 27 28  1  0
 28 29  2  0
 23  2  1  0
 29 24  1  0
 13  8  1  0
 22 17  1  0
M  END
> <Identifier>
5342.0

> <DILI>
0

$$$$

     RDKit          2D

 25 27  0  0  0  0  0  0  0  0999 V2000
   -0.5762   -1.3054    0.0000 C   0  0  0  0  0  0  0  0  0  0  0  0
    0.7184   -0.5478    0.0000 C   0  0  0  0  0  0  0  0  0  0  0  0
    2.0922   -1.1498    0.0000 C   0  0  0  0  0  0  0  0  0  0  0  0
    2.4127   -2.6152    0.0000 C   0  0  0  0  0  0  0  0  0  0  0  0
    1.3040   -3.6254    0.0000 C   0  0  0  0  0  0  0  0  0  0  0  0
   -0.1253   -3.1703    0.0000 O   0  0  0  0  0  0  0  0  0  0  0  0
    1.6245   -5.0908    0.0000 O   0  0  0  0  0  0  0  0  0  0  0  0
    3.0894   -0.0292    0.0000 C   0  0  0  0  0  0  0  0  0  0  0  0
    4.5893   -0.0204    0.0000 C   0  0  0  0  0  0  0  0  0  0  0  0
    5.3317    1.2831    0.0000 C   0  0  0  0  0  0  0  0  0  0  0  0
    6.8316    1.2919    0.0000 F   0  0  0  0  0  0  0  0  0  0  0  0
    4.5740    2.5777    0.0000 C   0  0  0  0  0  0  0  0  0  0  0  0
    3.0741    2.5688    0.0000 C   0  0  0  0  0  0  0  0  0  0  0  0
    2.3317    1.2654    0.0000 C   0  0  0  0  0  0  0  0  0  0  0  0
    0.8664    0.9449    0.0000 C   0  0  0  0  0  0  0  0  0  0  0  0
   -0.2543    1.9420    0.0000 C   0  0  0  0  0  0  0  0  0  0  0  0
   -1.6781    1.4701    0.0000 C   0  0  0  0  0  0  0  0  0  0  0  0
   -2.7987    2.4672    0.0000 C   0  0  0  0  0  0  0  0  0  0  0  0
   -4.2225    1.9953    0.0000 C   0  0  0  0  0  0  0  0  0  0  0  0
   -4.5257    0.5263    0.0000 C   0  0  0  0  0  0  0  0  0  0  0  0
   -5.9496    0.0544    0.0000 S   0  0  0  0  0  0  0  0  0  0  0  0
   -7.0702    1.0515    0.0000 C   0  0  0  0  0  0  0  0  0  0  0  0
   -6.2528   -1.4147    0.0000 O   0  0  0  0  0  0  0  0  0  0  0  0
   -3.4051   -0.4708    0.0000 C   0  0  0  0  0  0  0  0  0  0  0  0
   -1.9813    0.0011    0.0000 C   0  0  0  0  0  0  0  0  0  0  0  0
  1  2  1  0
  2  3  2  0
  3  4  1  0
  4  5  1  0
  5  6  2  0
  5  7  1  0
  3  8  1  0
  8  9  2  0
  9 10  1  0
 10 11  1  0
 10 12  2  0
 12 13  1  0
 13 14  2  0
 14 15  1  0
 15 16  2  3
 16 17  1  0
 17 18  2  0
 18 19  1  0
 19 20  2  0
 20 21  1  0
 21 22  1  0
 21 23  2  0
 20 24  1  0
 24 25  2  0
 15  2  1  0
 25 17  1  0
 14  8  1  0
M  END
> <Identifier>
5352.0

> <DILI>
1

$$$$

     RDKit          2D

 23 23  0  0  0  0  0  0  0  0999 V2000
   -9.8655    2.7655    0.0000 C   0  0  0  0  0  0  0  0  0  0  0  0
   -9.0051    1.5367    0.0000 C   0  0  0  0  0  0  0  0  0  0  0  0
   -7.5109    1.6674    0.0000 C   0  0  0  0  0  0  0  0  0  0  0  0
   -6.6505    0.4387    0.0000 C   0  0  0  0  0  0  0  0  0  0  0  0
   -5.1562    0.5694    0.0000 C   0  0  0  0  0  0  0  0  0  0  0  0
   -4.2958   -0.6593    0.0000 C   0  0  0  0  0  0  0  0  0  0  0  0
   -2.8016   -0.5286    0.0000 C   0  0  0  0  0  0  0  0  0  0  0  0
   -1.9412   -1.7573    0.0000 C   0  0  0  0  0  0  0  0  0  0  0  0
   -0.4469   -1.6266    0.0000 N   0  0  0  0  0  0  0  0  0  0  0  0
    0.4135   -2.8553    0.0000 C   0  0  0  0  0  0  0  0  0  0  0  0
   -0.2205   -4.2148    0.0000 C   0  0  0  0  0  0  0  0  0  0  0  0
    1.9078   -2.7246    0.0000 C   0  0  0  0  0  0  0  0  0  0  0  0
    2.7681   -3.9533    0.0000 O   0  0  0  0  0  0  0  0  0  0  0  0
    2.5417   -1.3651    0.0000 C   0  0  0  0  0  0  0  0  0  0  0  0
    1.6813   -0.1364    0.0000 C   0  0  0  0  0  0  0  0  0  0  0  0
    2.3153    1.2231    0.0000 C   0  0  0  0  0  0  0  0  0  0  0  0
    3.8096    1.3538    0.0000 C   0  0  0  0  0  0  0  0  0  0  0  0
    4.4435    2.7133    0.0000 S   0  0  0  0  0  0  0  0  0  0  0  0
    5.9378    2.8440    0.0000 C   0  0  0  0  0  0  0  0  0  0  0  0
    6.5717    4.2034    0.0000 C   0  0  0  0  0  0  0  0  0  0  0  0
    6.7981    1.6152    0.0000 C   0  0  0  0  0  0  0  0  0  0  0  0
    4.6699    0.1251    0.0000 C   0  0  0  0  0  0  0  0  0  0  0  0
    4.0360   -1.2344    0.0000 C   0  0  0  0  0  0  0  0  0  0  0  0
  1  2  1  0
  2  3  1  0
  3  4  1  0
  4  5  1  0
  5  6  1  0
  6  7  1  0
  7  8  1  0
  8  9  1  0
  9 10  1  0
 10 11  1  0
 10 12  1  0
 12 13  1  0
 12 14  1  0
 14 15  2  0
 15 16  1  0
 16 17  2  0
 17 18  1  0
 18 19  1  0
 19 20  1  0
 19 21  1  0
 17 22  1  0
 22 23  2  0
 23 14  1  0
M  END
> <Identifier>
5354.0

> <DILI>
1

$$$$

     RDKit          2D

 14 15  0  0  0  0  0  0  0  0999 V2000
    4.0746   -1.0319    0.0000 C   0  0  0  0  0  0  0  0  0  0  0  0
    2.5986   -0.7646    0.0000 N   0  0  0  0  0  0  0  0  0  0  0  0
    1.6290   -1.9091    0.0000 N   0  0  0  0  0  0  0  0  0  0  0  0
    0.1531   -1.6418    0.0000 N   0  0  0  0  0  0  0  0  0  0  0  0
   -0.3534   -0.2298    0.0000 C   0  0  0  0  0  0  0  0  0  0  0  0
   -1.7415    0.3385    0.0000 C   0  0  0  0  0  0  0  0  0  0  0  0
   -3.0173   -0.4504    0.0000 C   0  0  0  0  0  0  0  0  0  0  0  0
   -4.3384    0.2600    0.0000 N   0  0  0  0  0  0  0  0  0  0  0  0
   -2.9719   -1.9497    0.0000 O   0  0  0  0  0  0  0  0  0  0  0  0
   -1.6299    1.8344    0.0000 N   0  0  0  0  0  0  0  0  0  0  0  0
   -0.1728    2.1905    0.0000 C   0  0  0  0  0  0  0  0  0  0  0  0
    0.6162    0.9147    0.0000 N   0  0  0  0  0  0  0  0  0  0  0  0
    2.0921    0.6473    0.0000 C   0  0  0  0  0  0  0  0  0  0  0  0
    3.0617    1.7919    0.0000 O   0  0  0  0  0  0  0  0  0  0  0  0
  1  2  1  0
  2  3  1  0
  3  4  2  0
  4  5  1  0
  5  6  2  0
  6  7  1  0
  7  8  1  0
  7  9  2  0
  6 10  1  0
 10 11  2  0
 11 12  1  0
 12 13  1  0
 13 14  2  0
 13  2  1  0
 12  5  1  0
M  END
> <Identifier>
5394.0

> <DILI>
0

$$$$

     RDKit          2D

 22 23  0  0  0  0  0  0  0  0999 V2000
   -0.2329    3.0986    0.0000 C   0  0  0  0  0  0  0  0  0  0  0  0
    0.4120    1.7443    0.0000 N   0  0  0  0  0  0  0  0  0  0  0  0
   -0.4384    0.5087    0.0000 C   0  0  0  0  0  0  0  0  0  0  0  0
   -1.9337    0.6273    0.0000 C   0  0  0  0  0  0  0  0  0  0  0  0
   -2.7841   -0.6083    0.0000 C   0  0  0  0  0  0  0  0  0  0  0  0
   -4.2794   -0.4897    0.0000 C   0  0  0  0  0  0  0  0  0  0  0  0
   -5.7747   -0.3710    0.0000 C   0  0  0  0  0  0  0  0  0  0  0  0
   -7.2700   -0.2523    0.0000 C   0  0  0  0  0  0  0  0  0  0  0  0
   -7.3887   -1.7476    0.0000 C   0  0  0  0  0  0  0  0  0  0  0  0
   -7.1514    1.2430    0.0000 C   0  0  0  0  0  0  0  0  0  0  0  0
   -8.7653   -0.1337    0.0000 C   0  0  0  0  0  0  0  0  0  0  0  0
    1.9073    1.6256    0.0000 C   0  0  0  0  0  0  0  0  0  0  0  0
    2.5522    0.2713    0.0000 C   0  0  0  0  0  0  0  0  0  0  0  0
    1.7018   -0.9643    0.0000 C   0  0  0  0  0  0  0  0  0  0  0  0
    2.3467   -2.3186    0.0000 C   0  0  0  0  0  0  0  0  0  0  0  0
    3.8420   -2.4373    0.0000 C   0  0  0  0  0  0  0  0  0  0  0  0
    4.6924   -1.2016    0.0000 C   0  0  0  0  0  0  0  0  0  0  0  0
    6.1877   -1.3203    0.0000 C   0  0  0  0  0  0  0  0  0  0  0  0
    7.0381   -0.0847    0.0000 C   0  0  0  0  0  0  0  0  0  0  0  0
    6.3932    1.2696    0.0000 C   0  0  0  0  0  0  0  0  0  0  0  0
    4.8979    1.3883    0.0000 C   0  0  0  0  0  0  0  0  0  0  0  0
    4.0475    0.1527    0.0000 C   0  0  0  0  0  0  0  0  0  0  0  0
  1  2  1  0
  2  3  1  0
  3  4  1  0
  4  5  2  3
  5  6  1  0
  6  7  3  0
  7  8  1  0
  8  9  1  0
  8 10  1  0
  8 11  1  0
  2 12  1  0
 12 13  1  0
 13 14  2  0
 14 15  1  0
 15 16  2  0
 16 17  1  0
 17 18  2  0
 18 19  1  0
 19 20  2  0
 20 21  1  0
 21 22  2  0
 22 13  1  0
 22 17  1  0
M  END
> <Identifier>
5402.0

> <DILI>
1

$$$$

     RDKit          2D

 35 38  0  0  0  0  0  0  0  0999 V2000
  -10.6582    0.9973    0.0000 C   0  0  0  0  0  0  0  0  0  0  0  0
  -10.2923   -0.4574    0.0000 C   0  0  0  0  0  0  0  0  0  0  0  0
   -9.9263   -1.9121    0.0000 C   0  0  0  0  0  0  0  0  0  0  0  0
  -11.7469   -0.8233    0.0000 C   0  0  0  0  0  0  0  0  0  0  0  0
   -8.8376   -0.0914    0.0000 C   0  0  0  0  0  0  0  0  0  0  0  0
   -8.4272    1.3513    0.0000 C   0  0  0  0  0  0  0  0  0  0  0  0
   -6.9725    1.7173    0.0000 C   0  0  0  0  0  0  0  0  0  0  0  0
   -5.9282    0.6405    0.0000 C   0  0  0  0  0  0  0  0  0  0  0  0
   -4.4736    1.0064    0.0000 C   0  0  0  0  0  0  0  0  0  0  0  0
   -4.0631    2.4492    0.0000 O   0  0  0  0  0  0  0  0  0  0  0  0
   -3.4293   -0.0704    0.0000 C   0  0  0  0  0  0  0  0  0  0  0  0
   -1.9746    0.2955    0.0000 C   0  0  0  0  0  0  0  0  0  0  0  0
   -0.9304   -0.7813    0.0000 C   0  0  0  0  0  0  0  0  0  0  0  0
    0.5243   -0.4153    0.0000 N   0  0  0  0  0  0  0  0  0  0  0  0
    1.5686   -1.4921    0.0000 C   0  0  0  0  0  0  0  0  0  0  0  0
    3.0232   -1.1262    0.0000 C   0  0  0  0  0  0  0  0  0  0  0  0
    3.4337    0.3166    0.0000 C   0  0  0  0  0  0  0  0  0  0  0  0
    4.8883    0.6825    0.0000 C   0  0  0  0  0  0  0  0  0  0  0  0
    4.5224    2.1372    0.0000 O   0  0  0  0  0  0  0  0  0  0  0  0
    6.3430    1.0485    0.0000 C   0  0  0  0  0  0  0  0  0  0  0  0
    7.3873   -0.0283    0.0000 C   0  0  0  0  0  0  0  0  0  0  0  0
    8.8419    0.3376    0.0000 C   0  0  0  0  0  0  0  0  0  0  0  0
    9.2524    1.7804    0.0000 C   0  0  0  0  0  0  0  0  0  0  0  0
    8.2081    2.8572    0.0000 C   0  0  0  0  0  0  0  0  0  0  0  0
    6.7534    2.4912    0.0000 C   0  0  0  0  0  0  0  0  0  0  0  0
    5.2543   -0.7722    0.0000 C   0  0  0  0  0  0  0  0  0  0  0  0
    4.1775   -1.8164    0.0000 C   0  0  0  0  0  0  0  0  0  0  0  0
    4.5434   -3.2711    0.0000 C   0  0  0  0  0  0  0  0  0  0  0  0
    5.9862   -3.6815    0.0000 C   0  0  0  0  0  0  0  0  0  0  0  0
    7.0630   -2.6372    0.0000 C   0  0  0  0  0  0  0  0  0  0  0  0
    6.6970   -1.1826    0.0000 C   0  0  0  0  0  0  0  0  0  0  0  0
    2.3894    1.3934    0.0000 C   0  0  0  0  0  0  0  0  0  0  0  0
    0.9347    1.0274    0.0000 C   0  0  0  0  0  0  0  0  0  0  0  0
   -6.3387   -0.8023    0.0000 C   0  0  0  0  0  0  0  0  0  0  0  0
   -7.7933   -1.1683    0.0000 C   0  0  0  0  0  0  0  0  0  0  0  0
  1  2  1  0
  2  3  1  0
  2  4  1  0
  2  5  1  0
  5  6  2  0
  6  7  1  0
  7  8  2  0
  8  9  1  0
  9 10  1  0
  9 11  1  0
 11 12  1  0
 12 13  1  0
 13 14  1  0
 14 15  1  0
 15 16  1  0
 16 17  1  0
 17 18  1  0
 18 19  1  0
 18 20  1  0
 20 21  2  0
 21 22  1  0
 22 23  2  0
 23 24  1  0
 24 25  2  0
 18 26  1  0
 26 27  2  0
 27 28  1  0
 28 29  2  0
 29 30  1  0
 30 31  2  0
 17 32  1  0
 32 33  1  0
  8 34  1  0
 34 35  2  0
 35  5  1  0
 33 14  1  0
 25 20  1  0
 31 26  1  0
M  END
> <Identifier>
5405.0

> <DILI>
0

$$$$

     RDKit          2D

 19 19  0  0  0  0  0  0  0  0999 V2000
   -9.0123    0.0920    0.0000 C   0  0  0  0  0  0  0  0  0  0  0  0
   -7.5820    0.5439    0.0000 C   0  0  0  0  0  0  0  0  0  0  0  0
   -6.4755   -0.4688    0.0000 C   0  0  0  0  0  0  0  0  0  0  0  0
   -5.0452   -0.0168    0.0000 C   0  0  0  0  0  0  0  0  0  0  0  0
   -3.9386   -1.0295    0.0000 N   0  0  0  0  0  0  0  0  0  0  0  0
   -2.5084   -0.5775    0.0000 C   0  0  0  0  0  0  0  0  0  0  0  0
   -2.1846    0.8871    0.0000 C   0  0  0  0  0  0  0  0  0  0  0  0
   -0.7543    1.3391    0.0000 C   0  0  0  0  0  0  0  0  0  0  0  0
    0.3522    0.3264    0.0000 C   0  0  0  0  0  0  0  0  0  0  0  0
    1.7825    0.7784    0.0000 C   0  0  0  0  0  0  0  0  0  0  0  0
    2.1063    2.2430    0.0000 O   0  0  0  0  0  0  0  0  0  0  0  0
    2.8891   -0.2343    0.0000 O   0  0  0  0  0  0  0  0  0  0  0  0
    4.3194    0.2176    0.0000 C   0  0  0  0  0  0  0  0  0  0  0  0
    5.4259   -0.7950    0.0000 C   0  0  0  0  0  0  0  0  0  0  0  0
    6.8562   -0.3431    0.0000 N   0  0  0  0  0  0  0  0  0  0  0  0
    7.9628   -1.3558    0.0000 C   0  0  0  0  0  0  0  0  0  0  0  0
    7.1799    1.1216    0.0000 C   0  0  0  0  0  0  0  0  0  0  0  0
    0.0285   -1.1382    0.0000 C   0  0  0  0  0  0  0  0  0  0  0  0
   -1.4018   -1.5902    0.0000 C   0  0  0  0  0  0  0  0  0  0  0  0
  1  2  1  0
  2  3  1  0
  3  4  1  0
  4  5  1  0
  5  6  1  0
  6  7  2  0
  7  8  1  0
  8  9  2  0
  9 10  1  0
 10 11  2  0
 10 12  1  0
 12 13  1  0
 13 14  1  0
 14 15  1  0
 15 16  1  0
 15 17  1  0
  9 18  1  0
 18 19  2  0
 19  6  1  0
M  END
> <Identifier>
5411.0

> <DILI>
0

$$$$

     RDKit          2D

 17 19  0  0  0  0  0  0  0  0999 V2000
    3.6262    2.4784    0.0000 Cl  0  0  0  0  0  0  0  0  0  0  0  0
    3.5172    0.9824    0.0000 C   0  0  0  0  0  0  0  0  0  0  0  0
    4.7584    0.1400    0.0000 C   0  0  0  0  0  0  0  0  0  0  0  0
    4.6494   -1.3560    0.0000 C   0  0  0  0  0  0  0  0  0  0  0  0
    3.2993   -2.0097    0.0000 C   0  0  0  0  0  0  0  0  0  0  0  0
    2.0582   -1.1673    0.0000 C   0  0  0  0  0  0  0  0  0  0  0  0
    2.1672    0.3287    0.0000 C   0  0  0  0  0  0  0  0  0  0  0  0
    0.9260    1.1711    0.0000 C   0  0  0  0  0  0  0  0  0  0  0  0
   -0.4241    0.5175    0.0000 N   0  0  0  0  0  0  0  0  0  0  0  0
   -0.5330   -0.9786    0.0000 C   0  0  0  0  0  0  0  0  0  0  0  0
   -1.8831   -1.6322    0.0000 C   0  0  0  0  0  0  0  0  0  0  0  0
   -3.1242   -0.7899    0.0000 C   0  0  0  0  0  0  0  0  0  0  0  0
   -4.5807   -1.1485    0.0000 S   0  0  0  0  0  0  0  0  0  0  0  0
   -5.3719    0.1258    0.0000 C   0  0  0  0  0  0  0  0  0  0  0  0
   -4.4044    1.2721    0.0000 C   0  0  0  0  0  0  0  0  0  0  0  0
   -3.0153    0.7062    0.0000 C   0  0  0  0  0  0  0  0  0  0  0  0
   -1.6652    1.3598    0.0000 C   0  0  0  0  0  0  0  0  0  0  0  0
  1  2  1  0
  2  3  2  0
  3  4  1  0
  4  5  2  0
  5  6  1  0
  6  7  2  0
  7  8  1  0
  8  9  1  0
  9 10  1  0
 10 11  1  0
 11 12  1  0
 12 13  1  0
 13 14  1  0
 14 15  2  0
 15 16  1  0
 16 17  1  0
  7  2  1  0
 17  9  1  0
 16 12  2  0
M  END
> <Identifier>
5472.0

> <DILI>
1

$$$$

     RDKit          2D

 21 22  0  0  0  0  0  0  0  0999 V2000
    7.0868   -1.5543    0.0000 C   0  0  0  0  0  0  0  0  0  0  0  0
    5.7297   -0.9154    0.0000 C   0  0  0  0  0  0  0  0  0  0  0  0
    4.4978   -1.7712    0.0000 C   0  0  0  0  0  0  0  0  0  0  0  0
    3.1407   -1.1322    0.0000 C   0  0  0  0  0  0  0  0  0  0  0  0
    3.0155    0.3625    0.0000 C   0  0  0  0  0  0  0  0  0  0  0  0
    1.6584    1.0015    0.0000 S   0  0  0  0  0  0  0  0  0  0  0  0
    1.0194   -0.3557    0.0000 O   0  0  0  0  0  0  0  0  0  0  0  0
    2.2973    2.3586    0.0000 O   0  0  0  0  0  0  0  0  0  0  0  0
    0.3013    1.6404    0.0000 N   0  0  0  0  0  0  0  0  0  0  0  0
   -0.9306    0.7846    0.0000 C   0  0  0  0  0  0  0  0  0  0  0  0
   -0.8054   -0.7102    0.0000 O   0  0  0  0  0  0  0  0  0  0  0  0
   -2.2878    1.4235    0.0000 N   0  0  0  0  0  0  0  0  0  0  0  0
   -3.5197    0.5677    0.0000 N   0  0  0  0  0  0  0  0  0  0  0  0
   -3.2831   -0.9135    0.0000 C   0  0  0  0  0  0  0  0  0  0  0  0
   -4.2937   -2.0220    0.0000 C   0  0  0  0  0  0  0  0  0  0  0  0
   -5.7904   -1.9231    0.0000 C   0  0  0  0  0  0  0  0  0  0  0  0
   -6.6462   -0.6912    0.0000 C   0  0  0  0  0  0  0  0  0  0  0  0
   -6.2167    0.7460    0.0000 C   0  0  0  0  0  0  0  0  0  0  0  0
   -4.8252    1.3063    0.0000 C   0  0  0  0  0  0  0  0  0  0  0  0
    4.2474    1.2183    0.0000 C   0  0  0  0  0  0  0  0  0  0  0  0
    5.6045    0.5794    0.0000 C   0  0  0  0  0  0  0  0  0  0  0  0
  1  2  1  0
  2  3  2  0
  3  4  1  0
  4  5  2  0
  5  6  1  0
  6  7  2  0
  6  8  2  0
  6  9  1  0
  9 10  1  0
 10 11  2  0
 10 12  1  0
 12 13  1  0
 13 14  1  0
 14 15  1  0
 15 16  1  0
 16 17  1  0
 17 18  1  0
 18 19  1  0
  5 20  1  0
 20 21  2  0
 21  2  1  0
 19 13  1  0
M  END
> <Identifier>
5503.0

> <DILI>
1

$$$$

     RDKit          2D

 18 18  0  0  0  0  0  0  0  0999 V2000
    8.1841    0.3621    0.0000 C   0  0  0  0  0  0  0  0  0  0  0  0
    6.7584    0.8281    0.0000 C   0  0  0  0  0  0  0  0  0  0  0  0
    5.6419   -0.1737    0.0000 C   0  0  0  0  0  0  0  0  0  0  0  0
    4.2161    0.2923    0.0000 C   0  0  0  0  0  0  0  0  0  0  0  0
    3.0997   -0.7094    0.0000 N   0  0  0  0  0  0  0  0  0  0  0  0
    1.6739   -0.2434    0.0000 C   0  0  0  0  0  0  0  0  0  0  0  0
    1.3646    1.2244    0.0000 O   0  0  0  0  0  0  0  0  0  0  0  0
    0.5574   -1.2452    0.0000 N   0  0  0  0  0  0  0  0  0  0  0  0
   -0.8684   -0.7791    0.0000 S   0  0  0  0  0  0  0  0  0  0  0  0
   -1.3344   -2.2049    0.0000 O   0  0  0  0  0  0  0  0  0  0  0  0
   -0.4024    0.6466    0.0000 O   0  0  0  0  0  0  0  0  0  0  0  0
   -2.2941   -0.3131    0.0000 C   0  0  0  0  0  0  0  0  0  0  0  0
   -3.4106   -1.3149    0.0000 C   0  0  0  0  0  0  0  0  0  0  0  0
   -4.8364   -0.8489    0.0000 C   0  0  0  0  0  0  0  0  0  0  0  0
   -5.1457    0.6189    0.0000 C   0  0  0  0  0  0  0  0  0  0  0  0
   -6.5715    1.0849    0.0000 C   0  0  0  0  0  0  0  0  0  0  0  0
   -4.0292    1.6206    0.0000 C   0  0  0  0  0  0  0  0  0  0  0  0
   -2.6034    1.1546    0.0000 C   0  0  0  0  0  0  0  0  0  0  0  0
  1  2  1  0
  2  3  1  0
  3  4  1  0
  4  5  1  0
  5  6  1  0
  6  7  2  0
  6  8  1  0
  8  9  1  0
  9 10  2  0
  9 11  2  0
  9 12  1  0
 12 13  2  0
 13 14  1  0
 14 15  2  0
 15 16  1  0
 15 17  1  0
 17 18  2  0
 18 12  1  0
M  END
> <Identifier>
5505.0

> <DILI>
1

$$$$

     RDKit          2D

 19 20  0  0  0  0  0  0  0  0999 V2000
   -4.6601   -2.6793    0.0000 C   0  0  0  0  0  0  0  0  0  0  0  0
   -3.7165   -1.5133    0.0000 C   0  0  0  0  0  0  0  0  0  0  0  0
   -4.2545   -0.1131    0.0000 C   0  0  0  0  0  0  0  0  0  0  0  0
   -3.3108    1.0529    0.0000 C   0  0  0  0  0  0  0  0  0  0  0  0
   -1.8292    0.8187    0.0000 C   0  0  0  0  0  0  0  0  0  0  0  0
   -0.8856    1.9847    0.0000 C   0  0  0  0  0  0  0  0  0  0  0  0
   -1.4236    3.3849    0.0000 O   0  0  0  0  0  0  0  0  0  0  0  0
    0.5960    1.7505    0.0000 C   0  0  0  0  0  0  0  0  0  0  0  0
    1.6563    2.8115    0.0000 C   0  0  0  0  0  0  0  0  0  0  0  0
    2.9931    2.1309    0.0000 C   0  0  0  0  0  0  0  0  0  0  0  0
    2.7588    0.6493    0.0000 C   0  0  0  0  0  0  0  0  0  0  0  0
    3.8198   -0.4111    0.0000 C   0  0  0  0  0  0  0  0  0  0  0  0
    3.4320   -1.8601    0.0000 C   0  0  0  0  0  0  0  0  0  0  0  0
    1.9833   -2.2487    0.0000 O   0  0  0  0  0  0  0  0  0  0  0  0
    4.4930   -2.9204    0.0000 O   0  0  0  0  0  0  0  0  0  0  0  0
    1.2774    0.4142    0.0000 N   0  0  0  0  0  0  0  0  0  0  0  0
    0.5968   -0.9225    0.0000 C   0  0  0  0  0  0  0  0  0  0  0  0
   -1.2913   -0.5815    0.0000 C   0  0  0  0  0  0  0  0  0  0  0  0
   -2.2349   -1.7475    0.0000 C   0  0  0  0  0  0  0  0  0  0  0  0
  1  2  1  0
  2  3  2  0
  3  4  1  0
  4  5  2  0
  5  6  1  0
  6  7  2  0
  6  8  1  0
  8  9  2  0
  9 10  1  0
 10 11  2  0
 11 12  1  0
 12 13  1  0
 13 14  2  0
 13 15  1  0
 11 16  1  0
 16 17  1  0
  5 18  1  0
 18 19  2  0
 19  2  1  0
 16  8  1  0
M  END
> <Identifier>
5509.0

> <DILI>
1

$$$$

     RDKit          2D

 11 11  0  0  0  0  0  0  0  0999 V2000
   -4.1862    0.7785    0.0000 N   0  0  0  0  0  0  0  0  0  0  0  0
   -3.3137   -0.4417    0.0000 C   0  0  0  0  0  0  0  0  0  0  0  0
   -1.8208   -0.2961    0.0000 C   0  0  0  0  0  0  0  0  0  0  0  0
   -1.2003    1.0695    0.0000 C   0  0  0  0  0  0  0  0  0  0  0  0
    0.2926    1.2151    0.0000 C   0  0  0  0  0  0  0  0  0  0  0  0
    1.1651   -0.0051    0.0000 C   0  0  0  0  0  0  0  0  0  0  0  0
    2.6580    0.1404    0.0000 C   0  0  0  0  0  0  0  0  0  0  0  0
    3.2784    1.5061    0.0000 O   0  0  0  0  0  0  0  0  0  0  0  0
    3.5305   -1.0797    0.0000 O   0  0  0  0  0  0  0  0  0  0  0  0
    0.5446   -1.3708    0.0000 C   0  0  0  0  0  0  0  0  0  0  0  0
   -0.9483   -1.5163    0.0000 C   0  0  0  0  0  0  0  0  0  0  0  0
  1  2  1  0
  2  3  1  0
  3  4  1  0
  4  5  1  0
  5  6  1  0
  6  7  1  0
  7  8  2  0
  7  9  1  0
  6 10  1  0
 10 11  1  0
 11  3  1  0
M  END
> <Identifier>
5526.0

> <DILI>
0

$$$$

     RDKit          2D

 26 29  0  0  0  0  0  0  0  0999 V2000
    5.9138    2.5907    0.0000 O   0  0  0  0  0  0  0  0  0  0  0  0
    5.3757    1.1906    0.0000 C   0  0  0  0  0  0  0  0  0  0  0  0
    3.9267    0.8029    0.0000 N   0  0  0  0  0  0  0  0  0  0  0  0
    2.7614    1.7473    0.0000 C   0  0  0  0  0  0  0  0  0  0  0  0
    1.3608    1.2103    0.0000 C   0  0  0  0  0  0  0  0  0  0  0  0
    0.1954    2.1547    0.0000 C   0  0  0  0  0  0  0  0  0  0  0  0
   -1.2052    1.6177    0.0000 N   0  0  0  0  0  0  0  0  0  0  0  0
   -2.3705    2.5621    0.0000 C   0  0  0  0  0  0  0  0  0  0  0  0
   -3.7711    2.0251    0.0000 C   0  0  0  0  0  0  0  0  0  0  0  0
   -4.0063    0.5437    0.0000 N   0  0  0  0  0  0  0  0  0  0  0  0
   -5.4069    0.0066    0.0000 C   0  0  0  0  0  0  0  0  0  0  0  0
   -6.5722    0.9511    0.0000 C   0  0  0  0  0  0  0  0  0  0  0  0
   -7.9728    0.4140    0.0000 C   0  0  0  0  0  0  0  0  0  0  0  0
   -8.2080   -1.0674    0.0000 C   0  0  0  0  0  0  0  0  0  0  0  0
   -7.0427   -2.0118    0.0000 C   0  0  0  0  0  0  0  0  0  0  0  0
   -7.2779   -3.4933    0.0000 Cl  0  0  0  0  0  0  0  0  0  0  0  0
   -5.6421   -1.4748    0.0000 C   0  0  0  0  0  0  0  0  0  0  0  0
   -2.8409   -0.4008    0.0000 C   0  0  0  0  0  0  0  0  0  0  0  0
   -1.4404    0.1363    0.0000 C   0  0  0  0  0  0  0  0  0  0  0  0
    3.8476   -0.6950    0.0000 N   0  0  0  0  0  0  0  0  0  0  0  0
    5.2478   -1.2331    0.0000 C   0  0  0  0  0  0  0  0  0  0  0  0
    5.7848   -2.6337    0.0000 C   0  0  0  0  0  0  0  0  0  0  0  0
    7.2663   -2.8689    0.0000 C   0  0  0  0  0  0  0  0  0  0  0  0
    8.2107   -1.7035    0.0000 C   0  0  0  0  0  0  0  0  0  0  0  0
    7.6737   -0.3030    0.0000 C   0  0  0  0  0  0  0  0  0  0  0  0
    6.1922   -0.0677    0.0000 N   0  0  0  0  0  0  0  0  0  0  0  0
  1  2  2  0
  2  3  1  0
  3  4  1  0
  4  5  1  0
  5  6  1  0
  6  7  1  0
  7  8  1  0
  8  9  1  0
  9 10  1  0
 10 11  1  0
 11 12  2  0
 12 13  1  0
 13 14  2  0
 14 15  1  0
 15 16  1  0
 15 17  2  0
 10 18  1  0
 18 19  1  0
  3 20  1  0
 20 21  2  0
 21 22  1  0
 22 23  2  0
 23 24  1  0
 24 25  2  0
 25 26  1  0
 26  2  1  0
 19  7  1  0
 26 21  1  0
 17 11  1  0
M  END
> <Identifier>
5533.0

> <DILI>
1

$$$$

     RDKit          2D

 22 24  0  0  0  0  0  0  0  0999 V2000
   -0.2140   -1.9855    0.0000 O   0  0  0  0  0  0  0  0  0  0  0  0
   -0.6517   -0.5508    0.0000 C   0  0  0  0  0  0  0  0  0  0  0  0
    0.7830   -0.1131    0.0000 C   0  0  0  0  0  0  0  0  0  0  0  0
    1.8794   -1.1368    0.0000 C   0  0  0  0  0  0  0  0  0  0  0  0
    3.3141   -0.6990    0.0000 N   0  0  0  0  0  0  0  0  0  0  0  0
    4.4106   -1.7227    0.0000 C   0  0  0  0  0  0  0  0  0  0  0  0
    5.8453   -1.2850    0.0000 C   0  0  0  0  0  0  0  0  0  0  0  0
    6.1836    0.1764    0.0000 C   0  0  0  0  0  0  0  0  0  0  0  0
    5.0871    1.2000    0.0000 C   0  0  0  0  0  0  0  0  0  0  0  0
    3.6524    0.7623    0.0000 C   0  0  0  0  0  0  0  0  0  0  0  0
   -1.0894    0.8839    0.0000 C   0  0  0  0  0  0  0  0  0  0  0  0
   -0.0658    1.9803    0.0000 C   0  0  0  0  0  0  0  0  0  0  0  0
   -0.5035    3.4150    0.0000 C   0  0  0  0  0  0  0  0  0  0  0  0
   -1.9649    3.7533    0.0000 C   0  0  0  0  0  0  0  0  0  0  0  0
   -2.9885    2.6569    0.0000 C   0  0  0  0  0  0  0  0  0  0  0  0
   -2.5508    1.2222    0.0000 C   0  0  0  0  0  0  0  0  0  0  0  0
   -2.0864   -0.9885    0.0000 C   0  0  0  0  0  0  0  0  0  0  0  0
   -3.1829    0.0351    0.0000 C   0  0  0  0  0  0  0  0  0  0  0  0
   -4.6176   -0.4026    0.0000 C   0  0  0  0  0  0  0  0  0  0  0  0
   -4.9559   -1.8640    0.0000 C   0  0  0  0  0  0  0  0  0  0  0  0
   -3.8594   -2.8876    0.0000 C   0  0  0  0  0  0  0  0  0  0  0  0
   -2.4247   -2.4499    0.0000 C   0  0  0  0  0  0  0  0  0  0  0  0
  1  2  1  0
  2  3  1  0
  3  4  1  0
  4  5  1  0
  5  6  1  0
  6  7  1  0
  7  8  1  0
  8  9  1  0
  9 10  1  0
  2 11  1  0
 11 12  2  0
 12 13  1  0
 13 14  2  0
 14 15  1  0
 15 16  2  0
  2 17  1  0
 17 18  1  0
 18 19  1  0
 19 20  1  0
 20 21  1  0
 21 22  1  0
 10  5  1  0
 16 11  1  0
 22 17  1  0
M  END
> <Identifier>
5572.0

> <DILI>
0

$$$$

     RDKit          2D

 28 29  0  0  0  0  0  0  0  0999 V2000
    7.4985   -1.9231    0.0000 C   0  0  0  0  0  0  0  0  0  0  0  0
    7.1034   -0.4761    0.0000 O   0  0  0  0  0  0  0  0  0  0  0  0
    5.6527   -0.0947    0.0000 C   0  0  0  0  0  0  0  0  0  0  0  0
    4.5971   -1.1604    0.0000 C   0  0  0  0  0  0  0  0  0  0  0  0
    3.1464   -0.7791    0.0000 C   0  0  0  0  0  0  0  0  0  0  0  0
    2.0908   -1.8448    0.0000 C   0  0  0  0  0  0  0  0  0  0  0  0
    2.4859   -3.2918    0.0000 O   0  0  0  0  0  0  0  0  0  0  0  0
    0.6401   -1.4634    0.0000 N   0  0  0  0  0  0  0  0  0  0  0  0
   -0.4155   -2.5291    0.0000 C   0  0  0  0  0  0  0  0  0  0  0  0
   -1.8663   -2.1478    0.0000 C   0  0  0  0  0  0  0  0  0  0  0  0
   -2.2614   -0.7008    0.0000 C   0  0  0  0  0  0  0  0  0  0  0  0
   -3.7121   -0.3194    0.0000 C   0  0  0  0  0  0  0  0  0  0  0  0
   -4.7677   -1.3851    0.0000 C   0  0  0  0  0  0  0  0  0  0  0  0
   -6.2184   -1.0038    0.0000 O   0  0  0  0  0  0  0  0  0  0  0  0
   -6.6135    0.4432    0.0000 C   0  0  0  0  0  0  0  0  0  0  0  0
   -8.0643    0.8246    0.0000 C   0  0  0  0  0  0  0  0  0  0  0  0
   -8.4594    2.2716    0.0000 N   0  0  0  0  0  0  0  0  0  0  0  0
   -9.9101    2.6529    0.0000 C   0  0  0  0  0  0  0  0  0  0  0  0
   -7.4038    3.3373    0.0000 C   0  0  0  0  0  0  0  0  0  0  0  0
   -4.3726   -2.8322    0.0000 C   0  0  0  0  0  0  0  0  0  0  0  0
   -2.9219   -3.2135    0.0000 C   0  0  0  0  0  0  0  0  0  0  0  0
    2.7513    0.6679    0.0000 C   0  0  0  0  0  0  0  0  0  0  0  0
    3.8069    1.7336    0.0000 C   0  0  0  0  0  0  0  0  0  0  0  0
    3.4118    3.1807    0.0000 O   0  0  0  0  0  0  0  0  0  0  0  0
    4.4674    4.2464    0.0000 C   0  0  0  0  0  0  0  0  0  0  0  0
    5.2576    1.3523    0.0000 C   0  0  0  0  0  0  0  0  0  0  0  0
    6.3132    2.4180    0.0000 O   0  0  0  0  0  0  0  0  0  0  0  0
    7.7639    2.0367    0.0000 C   0  0  0  0  0  0  0  0  0  0  0  0
  1  2  1  0
  2  3  1  0
  3  4  2  0
  4  5  1  0
  5  6  1  0
  6  7  2  0
  6  8  1  0
  8  9  1  0
  9 10  1  0
 10 11  2  0
 11 12  1  0
 12 13  2  0
 13 14  1  0
 14 15  1  0
 15 16  1  0
 16 17  1  0
 17 18  1  0
 17 19  1  0
 13 20  1  0
 20 21  2  0
  5 22  2  0
 22 23  1  0
 23 24  1  0
 24 25  1  0
 23 26  2  0
 26 27  1  0
 27 28  1  0
 26  3  1  0
 21 10  1  0
M  END
> <Identifier>
5577.0

> <DILI>
1

$$$$

     RDKit          2D

 21 22  0  0  0  0  0  0  0  0999 V2000
    4.0350   -3.2934    0.0000 C   0  0  0  0  0  0  0  0  0  0  0  0
    4.1157   -1.7956    0.0000 O   0  0  0  0  0  0  0  0  0  0  0  0
    2.8589   -0.9767    0.0000 C   0  0  0  0  0  0  0  0  0  0  0  0
    1.5214   -1.6557    0.0000 C   0  0  0  0  0  0  0  0  0  0  0  0
    0.2646   -0.8369    0.0000 C   0  0  0  0  0  0  0  0  0  0  0  0
   -1.0729   -1.5159    0.0000 C   0  0  0  0  0  0  0  0  0  0  0  0
   -2.3297   -0.6970    0.0000 C   0  0  0  0  0  0  0  0  0  0  0  0
   -2.2489    0.8008    0.0000 C   0  0  0  0  0  0  0  0  0  0  0  0
   -3.5057    1.6196    0.0000 N   0  0  0  0  0  0  0  0  0  0  0  0
   -4.8432    0.9406    0.0000 C   0  0  0  0  0  0  0  0  0  0  0  0
   -6.1000    1.7595    0.0000 N   0  0  0  0  0  0  0  0  0  0  0  0
   -4.9240   -0.5572    0.0000 N   0  0  0  0  0  0  0  0  0  0  0  0
   -3.6672   -1.3760    0.0000 C   0  0  0  0  0  0  0  0  0  0  0  0
   -3.7480   -2.8738    0.0000 N   0  0  0  0  0  0  0  0  0  0  0  0
    0.3454    0.6609    0.0000 C   0  0  0  0  0  0  0  0  0  0  0  0
    1.6829    1.3399    0.0000 C   0  0  0  0  0  0  0  0  0  0  0  0
    1.7636    2.8377    0.0000 O   0  0  0  0  0  0  0  0  0  0  0  0
    3.1012    3.5167    0.0000 C   0  0  0  0  0  0  0  0  0  0  0  0
    2.9397    0.5211    0.0000 C   0  0  0  0  0  0  0  0  0  0  0  0
    4.2772    1.2001    0.0000 O   0  0  0  0  0  0  0  0  0  0  0  0
    5.5340    0.3812    0.0000 C   0  0  0  0  0  0  0  0  0  0  0  0
  1  2  1  0
  2  3  1  0
  3  4  2  0
  4  5  1  0
  5  6  1  0
  6  7  1  0
  7  8  2  0
  8  9  1  0
  9 10  2  0
 10 11  1  0
 10 12  1  0
 12 13  2  0
 13 14  1  0
  5 15  2  0
 15 16  1  0
 16 17  1  0
 17 18  1  0
 16 19  2  0
 19 20  1  0
 20 21  1  0
 19  3  1  0
 13  7  1  0
M  END
> <Identifier>
5578.0

> <DILI>
1

$$$$

     RDKit          2D

 31 34  0  0  0  0  0  0  0  0999 V2000
   -8.7919    0.0195    0.0000 C   0  0  0  0  0  0  0  0  0  0  0  0
   -7.3197   -0.2684    0.0000 C   0  0  0  0  0  0  0  0  0  0  0  0
   -6.3344    0.8626    0.0000 C   0  0  0  0  0  0  0  0  0  0  0  0
   -6.8212    2.2814    0.0000 C   0  0  0  0  0  0  0  0  0  0  0  0
   -4.8623    0.5748    0.0000 C   0  0  0  0  0  0  0  0  0  0  0  0
   -4.3755   -0.8440    0.0000 C   0  0  0  0  0  0  0  0  0  0  0  0
   -5.3608   -1.9750    0.0000 C   0  0  0  0  0  0  0  0  0  0  0  0
   -4.8740   -3.3938    0.0000 C   0  0  0  0  0  0  0  0  0  0  0  0
   -6.8329   -1.6872    0.0000 C   0  0  0  0  0  0  0  0  0  0  0  0
   -7.8183   -2.8182    0.0000 O   0  0  0  0  0  0  0  0  0  0  0  0
   -2.9033   -1.1318    0.0000 C   0  0  0  0  0  0  0  0  0  0  0  0
   -1.9180   -0.0009    0.0000 C   0  0  0  0  0  0  0  0  0  0  0  0
   -2.4048    1.4180    0.0000 C   0  0  0  0  0  0  0  0  0  0  0  0
   -2.3770    2.9177    0.0000 C   0  0  0  0  0  0  0  0  0  0  0  0
   -0.9230    1.6510    0.0000 C   0  0  0  0  0  0  0  0  0  0  0  0
    0.0197    0.4842    0.0000 O   0  0  0  0  0  0  0  0  0  0  0  0
    1.5015    0.7173    0.0000 C   0  0  0  0  0  0  0  0  0  0  0  0
    2.4442   -0.4495    0.0000 C   0  0  0  0  0  0  0  0  0  0  0  0
    3.9260   -0.2165    0.0000 C   0  0  0  0  0  0  0  0  0  0  0  0
    4.4650    1.1833    0.0000 C   0  0  0  0  0  0  0  0  0  0  0  0
    5.9468    1.4163    0.0000 C   0  0  0  0  0  0  0  0  0  0  0  0
    6.8895    0.2496    0.0000 C   0  0  0  0  0  0  0  0  0  0  0  0
    8.3876    0.3265    0.0000 S   0  0  0  0  0  0  0  0  0  0  0  0
    8.9236   -1.0745    0.0000 C   0  0  0  0  0  0  0  0  0  0  0  0
   10.3720   -1.4643    0.0000 O   0  0  0  0  0  0  0  0  0  0  0  0
    7.7568   -2.0172    0.0000 N   0  0  0  0  0  0  0  0  0  0  0  0
    6.4997   -1.1989    0.0000 C   0  0  0  0  0  0  0  0  0  0  0  0
    5.0988   -1.7349    0.0000 O   0  0  0  0  0  0  0  0  0  0  0  0
    3.5223    2.3501    0.0000 C   0  0  0  0  0  0  0  0  0  0  0  0
    2.0405    2.1170    0.0000 C   0  0  0  0  0  0  0  0  0  0  0  0
   -3.8769    1.7058    0.0000 O   0  0  0  0  0  0  0  0  0  0  0  0
  1  2  1  0
  2  3  2  0
  3  4  1  0
  3  5  1  0
  5  6  2  0
  6  7  1  0
  7  8  1  0
  7  9  2  0
  9 10  1  0
  6 11  1  0
 11 12  1  0
 12 13  1  0
 13 14  1  0
 13 15  1  0
 15 16  1  0
 16 17  1  0
 17 18  2  0
 18 19  1  0
 19 20  2  0
 20 21  1  0
 21 22  1  0
 22 23  1  0
 23 24  1  0
 24 25  2  0
 24 26  1  0
 26 27  1  0
 27 28  2  0
 20 29  1  0
 29 30  2  0
 13 31  1  0
  9  2  1  0
 30 17  1  0
 31  5  1  0
 27 22  1  0
M  END
> <Identifier>
5591.0

> <DILI>
1

$$$$

     RDKit          2D

 41 45  0  0  0  0  0  0  0  0999 V2000
   -1.1216   -3.4535    0.0000 C   0  0  0  0  0  0  0  0  0  0  0  0
   -0.4956   -2.0904    0.0000 O   0  0  0  0  0  0  0  0  0  0  0  0
   -1.3631   -0.8666    0.0000 C   0  0  0  0  0  0  0  0  0  0  0  0
   -2.8566   -1.0060    0.0000 C   0  0  0  0  0  0  0  0  0  0  0  0
   -3.7241    0.2177    0.0000 C   0  0  0  0  0  0  0  0  0  0  0  0
   -5.2176    0.0783    0.0000 C   0  0  0  0  0  0  0  0  0  0  0  0
   -5.8436   -1.2848    0.0000 O   0  0  0  0  0  0  0  0  0  0  0  0
   -6.0850    1.3020    0.0000 N   0  0  0  0  0  0  0  0  0  0  0  0
   -7.5786    1.1626    0.0000 S   0  0  0  0  0  0  0  0  0  0  0  0
   -7.4392   -0.3309    0.0000 O   0  0  0  0  0  0  0  0  0  0  0  0
   -7.7180    2.6561    0.0000 O   0  0  0  0  0  0  0  0  0  0  0  0
   -9.0721    1.0232    0.0000 C   0  0  0  0  0  0  0  0  0  0  0  0
   -9.9395    2.2469    0.0000 C   0  0  0  0  0  0  0  0  0  0  0  0
  -11.4330    2.1075    0.0000 C   0  0  0  0  0  0  0  0  0  0  0  0
  -12.0591    0.7444    0.0000 C   0  0  0  0  0  0  0  0  0  0  0  0
  -11.1916   -0.4793    0.0000 C   0  0  0  0  0  0  0  0  0  0  0  0
   -9.6981   -0.3399    0.0000 C   0  0  0  0  0  0  0  0  0  0  0  0
   -8.8306   -1.5636    0.0000 C   0  0  0  0  0  0  0  0  0  0  0  0
   -3.0980    1.5808    0.0000 C   0  0  0  0  0  0  0  0  0  0  0  0
   -1.6045    1.7202    0.0000 C   0  0  0  0  0  0  0  0  0  0  0  0
   -0.7370    0.4965    0.0000 C   0  0  0  0  0  0  0  0  0  0  0  0
    0.7565    0.6359    0.0000 C   0  0  0  0  0  0  0  0  0  0  0  0
    1.6239   -0.5879    0.0000 C   0  0  0  0  0  0  0  0  0  0  0  0
    1.1438   -2.0089    0.0000 C   0  0  0  0  0  0  0  0  0  0  0  0
    2.3470   -2.9047    0.0000 N   0  0  0  0  0  0  0  0  0  0  0  0
    2.3295   -4.4046    0.0000 C   0  0  0  0  0  0  0  0  0  0  0  0
    3.5707   -2.0372    0.0000 C   0  0  0  0  0  0  0  0  0  0  0  0
    5.0342   -2.3662    0.0000 C   0  0  0  0  0  0  0  0  0  0  0  0
    6.0508   -1.2632    0.0000 C   0  0  0  0  0  0  0  0  0  0  0  0
    5.6040    0.1687    0.0000 C   0  0  0  0  0  0  0  0  0  0  0  0
    6.6206    1.2716    0.0000 N   0  0  0  0  0  0  0  0  0  0  0  0
    8.0841    0.9427    0.0000 C   0  0  0  0  0  0  0  0  0  0  0  0
    8.5309   -0.4892    0.0000 O   0  0  0  0  0  0  0  0  0  0  0  0
    9.1007    2.0456    0.0000 O   0  0  0  0  0  0  0  0  0  0  0  0
   10.5642    1.7167    0.0000 C   0  0  0  0  0  0  0  0  0  0  0  0
   11.6905    2.7073    0.0000 C   0  0  0  0  0  0  0  0  0  0  0  0
   12.9807    1.9422    0.0000 C   0  0  0  0  0  0  0  0  0  0  0  0
   12.6518    0.4787    0.0000 C   0  0  0  0  0  0  0  0  0  0  0  0
   11.1583    0.3393    0.0000 C   0  0  0  0  0  0  0  0  0  0  0  0
    4.1405    0.4976    0.0000 C   0  0  0  0  0  0  0  0  0  0  0  0
    3.1238   -0.6053    0.0000 C   0  0  0  0  0  0  0  0  0  0  0  0
  1  2  1  0
  2  3  1  0
  3  4  2  0
  4  5  1  0
  5  6  1  0
  6  7  2  0
  6  8  1  0
  8  9  1  0
  9 10  2  0
  9 11  2  0
  9 12  1  0
 12 13  2  0
 13 14  1  0
 14 15  2  0
 15 16  1  0
 16 17  2  0
 17 18  1  0
  5 19  2  0
 19 20  1  0
 20 21  2  0
 21 22  1  0
 22 23  1  0
 23 24  2  0
 24 25  1  0
 25 26  1  0
 25 27  1  0
 27 28  2  0
 28 29  1  0
 29 30  2  0
 30 31  1  0
 31 32  1  0
 32 33  2  0
 32 34  1  0
 34 35  1  0
 35 36  1  0
 36 37  1  0
 37 38  1  0
 38 39  1  0
 30 40  1  0
 40 41  2  0
 21  3  1  0
 41 23  1  0
 17 12  1  0
 41 27  1  0
 39 35  1  0
M  END
> <Identifier>
5717.0

> <DILI>
1

$$$$

     RDKit          2D

 14 15  0  0  0  0  0  0  0  0999 V2000
   -4.4014   -0.2298    0.0000 N   0  0  0  0  0  0  0  0  0  0  0  0
   -3.0018    0.3096    0.0000 S   0  0  0  0  0  0  0  0  0  0  0  0
   -3.5412    1.7093    0.0000 O   0  0  0  0  0  0  0  0  0  0  0  0
   -2.4624   -1.0900    0.0000 O   0  0  0  0  0  0  0  0  0  0  0  0
   -1.6021    0.8491    0.0000 C   0  0  0  0  0  0  0  0  0  0  0  0
   -0.4352   -0.0934    0.0000 C   0  0  0  0  0  0  0  0  0  0  0  0
   -0.5117   -1.5914    0.0000 N   0  0  0  0  0  0  0  0  0  0  0  0
    0.8894   -2.1271    0.0000 O   0  0  0  0  0  0  0  0  0  0  0  0
    1.8318   -0.9601    0.0000 C   0  0  0  0  0  0  0  0  0  0  0  0
    3.3297   -0.8796    0.0000 C   0  0  0  0  0  0  0  0  0  0  0  0
    4.0089    0.4578    0.0000 C   0  0  0  0  0  0  0  0  0  0  0  0
    3.1903    1.7147    0.0000 C   0  0  0  0  0  0  0  0  0  0  0  0
    1.6924    1.6342    0.0000 C   0  0  0  0  0  0  0  0  0  0  0  0
    1.0132    0.2968    0.0000 C   0  0  0  0  0  0  0  0  0  0  0  0
  1  2  1  0
  2  3  2  0
  2  4  2  0
  2  5  1  0
  5  6  1  0
  6  7  2  0
  7  8  1  0
  8  9  1  0
  9 10  2  0
 10 11  1  0
 11 12  2  0
 12 13  1  0
 13 14  2  0
 14  6  1  0
 14  9  1  0
M  END
> <Identifier>
5734.0

> <DILI>
1

$$$$

     RDKit          2D

 28 31  0  0  0  0  0  0  0  0999 V2000
   -4.6059   -2.2159    0.0000 C   0  0  0  0  0  0  0  0  0  0  0  0
   -3.2864   -1.5026    0.0000 C   0  0  0  0  0  0  0  0  0  0  0  0
   -1.9337   -2.1508    0.0000 C   0  0  0  0  0  0  0  0  0  0  0  0
   -0.8991   -1.0647    0.0000 C   0  0  0  0  0  0  0  0  0  0  0  0
    0.6003   -1.1067    0.0000 C   0  0  0  0  0  0  0  0  0  0  0  0
    1.3136   -2.4262    0.0000 C   0  0  0  0  0  0  0  0  0  0  0  0
    2.8130   -2.4682    0.0000 C   0  0  0  0  0  0  0  0  0  0  0  0
    3.5991   -1.1907    0.0000 C   0  0  0  0  0  0  0  0  0  0  0  0
    5.0985   -1.2327    0.0000 C   0  0  0  0  0  0  0  0  0  0  0  0
    5.8846    0.0448    0.0000 C   0  0  0  0  0  0  0  0  0  0  0  0
    7.3840    0.0028    0.0000 O   0  0  0  0  0  0  0  0  0  0  0  0
    5.1713    1.3643    0.0000 C   0  0  0  0  0  0  0  0  0  0  0  0
    3.6719    1.4063    0.0000 C   0  0  0  0  0  0  0  0  0  0  0  0
    2.8858    0.1288    0.0000 C   0  0  0  0  0  0  0  0  0  0  0  0
    2.1724    1.4484    0.0000 C   0  0  0  0  0  0  0  0  0  0  0  0
    1.3864    0.1708    0.0000 C   0  0  0  0  0  0  0  0  0  0  0  0
   -0.1131    0.2128    0.0000 F   0  0  0  0  0  0  0  0  0  0  0  0
    0.6730    1.4904    0.0000 C   0  0  0  0  0  0  0  0  0  0  0  0
    1.4591    2.7679    0.0000 O   0  0  0  0  0  0  0  0  0  0  0  0
   -0.8264    1.5324    0.0000 C   0  0  0  0  0  0  0  0  0  0  0  0
   -1.6125    0.2549    0.0000 C   0  0  0  0  0  0  0  0  0  0  0  0
   -2.3026    1.5867    0.0000 C   0  0  0  0  0  0  0  0  0  0  0  0
   -3.0878   -0.0158    0.0000 C   0  0  0  0  0  0  0  0  0  0  0  0
   -3.3842    1.4546    0.0000 O   0  0  0  0  0  0  0  0  0  0  0  0
   -4.5873    0.0262    0.0000 C   0  0  0  0  0  0  0  0  0  0  0  0
   -5.3734   -1.2513    0.0000 O   0  0  0  0  0  0  0  0  0  0  0  0
   -5.3006    1.3458    0.0000 C   0  0  0  0  0  0  0  0  0  0  0  0
   -6.8000    1.3878    0.0000 O   0  0  0  0  0  0  0  0  0  0  0  0
  1  2  1  0
  2  3  1  0
  3  4  1  0
  4  5  1  0
  5  6  1  0
  6  7  1  0
  7  8  1  0
  8  9  2  0
  9 10  1  0
 10 11  2  0
 10 12  1  0
 12 13  2  0
 13 14  1  0
 14 15  1  0
 14 16  1  0
 16 17  1  0
 16 18  1  0
 18 19  1  0
 18 20  1  0
 20 21  1  0
 21 22  1  0
 21 23  1  0
 23 24  1  0
 23 25  1  0
 25 26  2  0
 25 27  1  0
 27 28  1  0
 23  2  1  0
 21  4  1  0
 16  5  1  0
 14  8  1  0
M  END
> <Identifier>
5743.0

> <DILI>
0

$$$$

     RDKit          2D

 24 27  0  0  0  0  0  0  0  0999 V2000
   -3.3621   -1.2399    0.0000 C   0  0  0  0  0  0  0  0  0  0  0  0
   -2.0935   -0.4394    0.0000 O   0  0  0  0  0  0  0  0  0  0  0  0
   -0.7660   -1.1377    0.0000 C   0  0  0  0  0  0  0  0  0  0  0  0
   -0.5121    0.3406    0.0000 C   0  0  0  0  0  0  0  0  0  0  0  0
   -1.5588    1.4150    0.0000 C   0  0  0  0  0  0  0  0  0  0  0  0
   -3.0126    1.0457    0.0000 O   0  0  0  0  0  0  0  0  0  0  0  0
   -4.0594    2.1201    0.0000 C   0  0  0  0  0  0  0  0  0  0  0  0
   -5.5132    1.7508    0.0000 N   0  0  0  0  0  0  0  0  0  0  0  0
   -3.6523    3.5638    0.0000 O   0  0  0  0  0  0  0  0  0  0  0  0
    0.9724    0.5559    0.0000 C   0  0  0  0  0  0  0  0  0  0  0  0
    1.6359   -0.7893    0.0000 C   0  0  0  0  0  0  0  0  0  0  0  0
    3.1327   -0.8874    0.0000 C   0  0  0  0  0  0  0  0  0  0  0  0
    3.7962   -2.2326    0.0000 O   0  0  0  0  0  0  0  0  0  0  0  0
    3.9660    0.3599    0.0000 C   0  0  0  0  0  0  0  0  0  0  0  0
    5.4628    0.2619    0.0000 C   0  0  0  0  0  0  0  0  0  0  0  0
    3.3025    1.7052    0.0000 C   0  0  0  0  0  0  0  0  0  0  0  0
    4.1358    2.9524    0.0000 N   0  0  0  0  0  0  0  0  0  0  0  0
    1.8057    1.8032    0.0000 C   0  0  0  0  0  0  0  0  0  0  0  0
    1.1422    3.1485    0.0000 O   0  0  0  0  0  0  0  0  0  0  0  0
    0.5615   -1.8361    0.0000 N   0  0  0  0  0  0  0  0  0  0  0  0
    0.3076   -3.3144    0.0000 C   0  0  0  0  0  0  0  0  0  0  0  0
   -1.1769   -3.5298    0.0000 C   0  0  0  0  0  0  0  0  0  0  0  0
   -2.6737   -3.4317    0.0000 N   0  0  0  0  0  0  0  0  0  0  0  0
   -1.8404   -2.1845    0.0000 C   0  0  0  0  0  0  0  0  0  0  0  0
  1  2  1  0
  2  3  1  0
  3  4  1  0
  4  5  1  0
  5  6  1  0
  6  7  1  0
  7  8  1  0
  7  9  2  0
  4 10  1  0
 10 11  2  0
 11 12  1  0
 12 13  2  0
 12 14  1  0
 14 15  1  0
 14 16  2  0
 16 17  1  0
 16 18  1  0
 18 19  2  0
 11 20  1  0
 20 21  1  0
 21 22  1  0
 22 23  1  0
 23 24  1  0
 20  3  1  0
 24 22  1  0
 24  3  1  0
 18 10  1  0
M  END
> <Identifier>
5746.0

> <DILI>
0

$$$$

     RDKit          2D

 25 26  0  0  0  0  0  0  0  0999 V2000
    4.3500    2.7665    0.0000 C   0  0  0  0  0  0  0  0  0  0  0  0
    3.5828    1.4775    0.0000 C   0  0  0  0  0  0  0  0  0  0  0  0
    4.3154    0.1686    0.0000 N   0  0  0  0  0  4  0  0  0  0  0  0
    5.0481   -1.1403    0.0000 C   0  0  0  0  0  0  0  0  0  0  0  0
    5.6243    0.9013    0.0000 C   0  0  0  0  0  0  0  0  0  0  0  0
    5.6443    2.4011    0.0000 C   0  0  0  0  0  0  0  0  0  0  0  0
    3.0065   -0.5640    0.0000 C   0  0  0  0  0  0  0  0  0  0  0  0
    1.7176    0.2032    0.0000 C   0  0  0  0  0  0  0  0  0  0  0  0
    0.4087   -0.5294    0.0000 O   0  0  0  0  0  0  0  0  0  0  0  0
   -0.8803    0.2378    0.0000 C   0  0  0  0  0  0  0  0  0  0  0  0
   -0.8603    1.7377    0.0000 O   0  0  0  0  0  0  0  0  0  0  0  0
   -2.1892   -0.4948    0.0000 C   0  0  0  0  0  0  0  0  0  0  0  0
   -3.4981   -1.2275    0.0000 O   0  0  0  0  0  0  0  0  0  0  0  0
   -2.9218    0.8141    0.0000 C   0  0  0  0  0  0  0  0  0  0  0  0
   -2.1546    2.1030    0.0000 C   0  0  0  0  0  0  0  0  0  0  0  0
   -2.8872    3.4119    0.0000 C   0  0  0  0  0  0  0  0  0  0  0  0
   -4.3871    3.4319    0.0000 C   0  0  0  0  0  0  0  0  0  0  0  0
   -5.1543    2.1430    0.0000 C   0  0  0  0  0  0  0  0  0  0  0  0
   -4.4217    0.8341    0.0000 C   0  0  0  0  0  0  0  0  0  0  0  0
   -1.4565   -1.8037    0.0000 C   0  0  0  0  0  0  0  0  0  0  0  0
   -2.2238   -3.0927    0.0000 C   0  0  0  0  0  0  0  0  0  0  0  0
   -1.4911   -4.4016    0.0000 C   0  0  0  0  0  0  0  0  0  0  0  0
    0.0087   -4.4215    0.0000 C   0  0  0  0  0  0  0  0  0  0  0  0
    0.7760   -3.1326    0.0000 C   0  0  0  0  0  0  0  0  0  0  0  0
    0.0433   -1.8237    0.0000 C   0  0  0  0  0  0  0  0  0  0  0  0
  1  2  1  0
  2  3  1  0
  3  4  1  0
  3  5  1  0
  5  6  1  0
  3  7  1  0
  7  8  1  0
  8  9  1  0
  9 10  1  0
 10 11  2  0
 10 12  1  0
 12 13  1  0
 12 14  1  0
 14 15  2  0
 15 16  1  0
 16 17  2  0
 17 18  1  0
 18 19  2  0
 12 20  1  0
 20 21  1  0
 21 22  1  0
 22 23  1  0
 23 24  1  0
 24 25  1  0
 19 14  1  0
 25 20  1  0
M  CHG  1   3   1
M  END
> <Identifier>
5749.0

> <DILI>
0

$$$$

     RDKit          2D

 26 29  0  0  0  0  0  0  0  0999 V2000
    2.0291   -1.4220    0.0000 C   0  0  0  0  0  0  0  0  0  0  0  0
    2.7100   -0.0854    0.0000 C   0  0  0  0  0  0  0  0  0  0  0  0
    3.5271   -1.3433    0.0000 C   0  0  0  0  0  0  0  0  0  0  0  0
    5.0250   -1.2646    0.0000 C   0  0  0  0  0  0  0  0  0  0  0  0
    5.7058    0.0720    0.0000 C   0  0  0  0  0  0  0  0  0  0  0  0
    7.2038    0.1507    0.0000 O   0  0  0  0  0  0  0  0  0  0  0  0
    4.8887    1.3299    0.0000 C   0  0  0  0  0  0  0  0  0  0  0  0
    3.3908    1.2512    0.0000 C   0  0  0  0  0  0  0  0  0  0  0  0
    2.5737    2.5091    0.0000 C   0  0  0  0  0  0  0  0  0  0  0  0
    1.0757    2.4304    0.0000 C   0  0  0  0  0  0  0  0  0  0  0  0
    0.3949    1.0938    0.0000 C   0  0  0  0  0  0  0  0  0  0  0  0
    1.2120   -0.1641    0.0000 C   0  0  0  0  0  0  0  0  0  0  0  0
    0.5312   -1.5007    0.0000 C   0  0  0  0  0  0  0  0  0  0  0  0
    1.3483   -2.7586    0.0000 O   0  0  0  0  0  0  0  0  0  0  0  0
   -0.9667   -1.5794    0.0000 C   0  0  0  0  0  0  0  0  0  0  0  0
   -1.7838   -0.3214    0.0000 C   0  0  0  0  0  0  0  0  0  0  0  0
   -2.4412   -1.6697    0.0000 C   0  0  0  0  0  0  0  0  0  0  0  0
   -1.1030    1.0151    0.0000 C   0  0  0  0  0  0  0  0  0  0  0  0
   -2.1638    2.0757    0.0000 C   0  0  0  0  0  0  0  0  0  0  0  0
   -3.5002    1.3945    0.0000 C   0  0  0  0  0  0  0  0  0  0  0  0
   -3.2654   -0.0870    0.0000 C   0  0  0  0  0  0  0  0  0  0  0  0
   -3.5257   -1.5642    0.0000 O   0  0  0  0  0  0  0  0  0  0  0  0
   -4.7633   -0.1657    0.0000 C   0  0  0  0  0  0  0  0  0  0  0  0
   -5.4442   -1.5022    0.0000 O   0  0  0  0  0  0  0  0  0  0  0  0
   -5.5804    1.0923    0.0000 C   0  0  0  0  0  0  0  0  0  0  0  0
   -7.0784    1.0136    0.0000 O   0  0  0  0  0  0  0  0  0  0  0  0
  1  2  1  0
  2  3  1  0
  3  4  1  0
  4  5  1  0
  5  6  2  0
  5  7  1  0
  7  8  2  0
  8  9  1  0
  9 10  1  0
 10 11  1  0
 11 12  1  0
 12 13  1  0
 13 14  1  0
 13 15  1  0
 15 16  1  0
 16 17  1  0
 16 18  1  0
 18 19  1  0
 19 20  1  0
 20 21  1  0
 21 22  1  0
 21 23  1  0
 23 24  2  0
 23 25  1  0
 25 26  1  0
  8  2  1  0
 18 11  1  0
 12  2  1  0
 21 16  1  0
M  END
> <Identifier>
5754.0

> <DILI>
0

$$$$

     RDKit          2D

 20 23  0  0  0  0  0  0  0  0999 V2000
   -3.5888   -1.6651    0.0000 C   0  0  0  0  0  0  0  0  0  0  0  0
   -2.7276   -0.4369    0.0000 C   0  0  0  0  0  0  0  0  0  0  0  0
   -1.9559   -1.7232    0.0000 C   0  0  0  0  0  0  0  0  0  0  0  0
   -0.4561   -1.6979    0.0000 C   0  0  0  0  0  0  0  0  0  0  0  0
    0.2720   -0.3865    0.0000 C   0  0  0  0  0  0  0  0  0  0  0  0
    1.7717   -0.3613    0.0000 C   0  0  0  0  0  0  0  0  0  0  0  0
    2.5435   -1.6475    0.0000 C   0  0  0  0  0  0  0  0  0  0  0  0
    4.0433   -1.6223    0.0000 C   0  0  0  0  0  0  0  0  0  0  0  0
    4.7713   -0.3109    0.0000 C   0  0  0  0  0  0  0  0  0  0  0  0
    6.2711   -0.2857    0.0000 O   0  0  0  0  0  0  0  0  0  0  0  0
    3.9996    0.9754    0.0000 C   0  0  0  0  0  0  0  0  0  0  0  0
    2.4998    0.9502    0.0000 C   0  0  0  0  0  0  0  0  0  0  0  0
    1.7281    2.2364    0.0000 C   0  0  0  0  0  0  0  0  0  0  0  0
    0.2283    2.2112    0.0000 C   0  0  0  0  0  0  0  0  0  0  0  0
   -0.4998    0.8998    0.0000 C   0  0  0  0  0  0  0  0  0  0  0  0
   -1.9996    0.8746    0.0000 C   0  0  0  0  0  0  0  0  0  0  0  0
   -3.0218    1.9722    0.0000 C   0  0  0  0  0  0  0  0  0  0  0  0
   -4.3817    1.3392    0.0000 C   0  0  0  0  0  0  0  0  0  0  0  0
   -4.1999   -0.1497    0.0000 C   0  0  0  0  0  0  0  0  0  0  0  0
   -5.2976   -1.1720    0.0000 O   0  0  0  0  0  0  0  0  0  0  0  0
  1  2  1  0
  2  3  1  0
  3  4  1  0
  4  5  1  0
  5  6  1  0
  6  7  2  0
  7  8  1  0
  8  9  2  0
  9 10  1  0
  9 11  1  0
 11 12  2  0
 12 13  1  0
 13 14  1  0
 14 15  1  0
 15 16  1  0
 16 17  1  0
 17 18  1  0
 18 19  1  0
 19 20  1  0
 16  2  1  0
 19  2  1  0
 15  5  1  0
 12  6  1  0
M  END
> <Identifier>
5757.0

> <DILI>
0

$$$$

     RDKit          2D

 21 23  0  0  0  0  0  0  0  0999 V2000
   -6.1421   -0.7839    0.0000 C   0  0  0  0  0  0  0  0  0  0  0  0
   -4.6426   -0.7436    0.0000 C   0  0  0  0  0  0  0  0  0  0  0  0
   -3.9278    0.5751    0.0000 C   0  0  0  0  0  0  0  0  0  0  0  0
   -2.4284    0.6154    0.0000 C   0  0  0  0  0  0  0  0  0  0  0  0
   -1.6437   -0.6630    0.0000 C   0  0  0  0  0  0  0  0  0  0  0  0
   -0.1443   -0.6227    0.0000 N   0  0  0  0  0  0  0  0  0  0  0  0
    0.6404   -1.9011    0.0000 C   0  0  0  0  0  0  0  0  0  0  0  0
    2.1398   -1.8608    0.0000 C   0  0  0  0  0  0  0  0  0  0  0  0
    2.9886   -0.6240    0.0000 N   0  0  0  0  0  0  0  0  0  0  0  0
    4.4271   -1.0491    0.0000 C   0  0  0  0  0  0  0  0  0  0  0  0
    4.4674   -2.5485    0.0000 C   0  0  0  0  0  0  0  0  0  0  0  0
    3.0538   -3.0502    0.0000 N   0  0  0  0  0  0  0  0  0  0  0  0
    0.5706    0.6960    0.0000 C   0  0  0  0  0  0  0  0  0  0  0  0
    2.0700    0.7363    0.0000 C   0  0  0  0  0  0  0  0  0  0  0  0
    2.7849    2.0550    0.0000 C   0  0  0  0  0  0  0  0  0  0  0  0
    2.0002    3.3335    0.0000 C   0  0  0  0  0  0  0  0  0  0  0  0
    0.5008    3.2932    0.0000 C   0  0  0  0  0  0  0  0  0  0  0  0
   -0.2839    4.5716    0.0000 O   0  0  0  0  0  0  0  0  0  0  0  0
   -0.2141    1.9744    0.0000 C   0  0  0  0  0  0  0  0  0  0  0  0
   -2.3586   -1.9817    0.0000 C   0  0  0  0  0  0  0  0  0  0  0  0
   -3.8580   -2.0220    0.0000 C   0  0  0  0  0  0  0  0  0  0  0  0
  1  2  1  0
  2  3  2  0
  3  4  1  0
  4  5  2  0
  5  6  1  0
  6  7  1  0
  7  8  1  0
  8  9  2  0
  9 10  1  0
 10 11  1  0
 11 12  1  0
  6 13  1  0
 13 14  2  0
 14 15  1  0
 15 16  2  0
 16 17  1  0
 17 18  1  0
 17 19  2  0
  5 20  1  0
 20 21  2  0
 21  2  1  0
 12  8  1  0
 19 13  1  0
M  END
> <Identifier>
5775.0

> <DILI>
0

$$$$

     RDKit          2D

 17 18  0  0  0  0  0  0  0  0999 V2000
   -5.2259   -0.0425    0.0000 O   0  0  0  0  0  0  0  0  0  0  0  0
   -3.7273    0.0224    0.0000 C   0  0  0  0  0  0  0  0  0  0  0  0
   -3.0342    1.3527    0.0000 N   0  0  0  0  0  0  0  0  0  0  0  0
   -1.5357    1.4176    0.0000 C   0  0  0  0  0  0  0  0  0  0  0  0
   -0.8426    2.7479    0.0000 O   0  0  0  0  0  0  0  0  0  0  0  0
   -0.7301    0.1523    0.0000 N   0  0  0  0  0  0  0  0  0  0  0  0
    0.7685    0.2172    0.0000 C   0  0  0  0  0  0  0  0  0  0  0  0
    1.5968    1.4678    0.0000 C   0  0  0  0  0  0  0  0  0  0  0  0
    3.0421    1.0664    0.0000 C   0  0  0  0  0  0  0  0  0  0  0  0
    4.2163    1.9998    0.0000 O   0  0  0  0  0  0  0  0  0  0  0  0
    3.1070   -0.4322    0.0000 C   0  0  0  0  0  0  0  0  0  0  0  0
    4.3576   -1.2605    0.0000 C   0  0  0  0  0  0  0  0  0  0  0  0
    4.2655   -2.7577    0.0000 O   0  0  0  0  0  0  0  0  0  0  0  0
    1.7018   -0.9570    0.0000 O   0  0  0  0  0  0  0  0  0  0  0  0
   -1.4232   -1.1780    0.0000 C   0  0  0  0  0  0  0  0  0  0  0  0
   -2.9218   -1.2429    0.0000 C   0  0  0  0  0  0  0  0  0  0  0  0
   -3.6149   -2.5732    0.0000 F   0  0  0  0  0  0  0  0  0  0  0  0
  1  2  2  0
  2  3  1  0
  3  4  1  0
  4  5  2  0
  4  6  1  0
  6  7  1  0
  7  8  1  0
  8  9  1  0
  9 10  1  0
  9 11  1  0
 11 12  1  0
 12 13  1  0
 11 14  1  0
  6 15  1  0
 15 16  2  0
 16 17  1  0
 16  2  1  0
 14  7  1  0
M  END
> <Identifier>
5790.0

> <DILI>
1

$$$$

     RDKit          2D

 13 13  0  0  0  0  0  0  0  0999 V2000
   -5.2067    0.9843    0.0000 C   0  0  0  0  0  0  0  0  0  0  0  0
   -4.1021   -0.0306    0.0000 N   0  0  0  0  0  0  0  0  0  0  0  0
   -2.6710    0.4186    0.0000 C   0  0  0  0  0  0  0  0  0  0  0  0
   -1.5664   -0.5963    0.0000 C   0  0  0  0  0  0  0  0  0  0  0  0
   -1.8930   -2.0603    0.0000 O   0  0  0  0  0  0  0  0  0  0  0  0
   -0.1352   -0.1472    0.0000 C   0  0  0  0  0  0  0  0  0  0  0  0
    0.1914    1.3168    0.0000 C   0  0  0  0  0  0  0  0  0  0  0  0
    1.6226    1.7660    0.0000 C   0  0  0  0  0  0  0  0  0  0  0  0
    2.7271    0.7511    0.0000 C   0  0  0  0  0  0  0  0  0  0  0  0
    4.1583    1.2003    0.0000 O   0  0  0  0  0  0  0  0  0  0  0  0
    2.4005   -0.7129    0.0000 C   0  0  0  0  0  0  0  0  0  0  0  0
    3.5051   -1.7278    0.0000 O   0  0  0  0  0  0  0  0  0  0  0  0
    0.9693   -1.1620    0.0000 C   0  0  0  0  0  0  0  0  0  0  0  0
  1  2  1  0
  2  3  1  0
  3  4  1  0
  4  5  1  0
  4  6  1  0
  6  7  2  0
  7  8  1  0
  8  9  2  0
  9 10  1  0
  9 11  1  0
 11 12  1  0
 11 13  2  0
 13  6  1  0
M  END
> <Identifier>
5816.0

> <DILI>
0

$$$$

     RDKit          2D

 10 10  0  0  0  0  0  0  0  0999 V2000
   -3.7985   -0.4910    0.0000 C   0  0  0  0  0  0  0  0  0  0  0  0
   -2.3812    0.0000    0.0000 C   0  0  0  0  0  0  0  0  0  0  0  0
   -2.0977    1.4730    0.0000 N   0  0  0  0  0  0  0  0  0  0  0  0
   -1.2473   -0.9820    0.0000 C   0  0  0  0  0  0  0  0  0  0  0  0
    0.1701   -0.4910    0.0000 C   0  0  0  0  0  0  0  0  0  0  0  0
    0.4536    0.9820    0.0000 C   0  0  0  0  0  0  0  0  0  0  0  0
    1.8709    1.4730    0.0000 C   0  0  0  0  0  0  0  0  0  0  0  0
    3.0048    0.4910    0.0000 C   0  0  0  0  0  0  0  0  0  0  0  0
    2.7213   -0.9820    0.0000 C   0  0  0  0  0  0  0  0  0  0  0  0
    1.3040   -1.4730    0.0000 C   0  0  0  0  0  0  0  0  0  0  0  0
  1  2  1  0
  2  3  1  0
  2  4  1  0
  4  5  1  0
  5  6  2  0
  6  7  1  0
  7  8  2  0
  8  9  1  0
  9 10  2  0
 10  5  1  0
M  END
> <Identifier>
5826.0

> <DILI>
0

$$$$

     RDKit          2D

 26 29  0  0  0  0  0  0  0  0999 V2000
    2.0291   -1.4220    0.0000 C   0  0  0  0  0  0  0  0  0  0  0  0
    2.7100   -0.0854    0.0000 C   0  0  0  0  0  0  0  0  0  0  0  0
    3.5271   -1.3433    0.0000 C   0  0  0  0  0  0  0  0  0  0  0  0
    5.0250   -1.2646    0.0000 C   0  0  0  0  0  0  0  0  0  0  0  0
    5.7058    0.0720    0.0000 C   0  0  0  0  0  0  0  0  0  0  0  0
    7.2038    0.1507    0.0000 O   0  0  0  0  0  0  0  0  0  0  0  0
    4.8887    1.3299    0.0000 C   0  0  0  0  0  0  0  0  0  0  0  0
    3.3908    1.2512    0.0000 C   0  0  0  0  0  0  0  0  0  0  0  0
    2.5737    2.5091    0.0000 C   0  0  0  0  0  0  0  0  0  0  0  0
    1.0757    2.4304    0.0000 C   0  0  0  0  0  0  0  0  0  0  0  0
    0.3949    1.0938    0.0000 C   0  0  0  0  0  0  0  0  0  0  0  0
    1.2120   -0.1641    0.0000 C   0  0  0  0  0  0  0  0  0  0  0  0
    0.5312   -1.5007    0.0000 C   0  0  0  0  0  0  0  0  0  0  0  0
    1.3483   -2.7586    0.0000 O   0  0  0  0  0  0  0  0  0  0  0  0
   -0.9667   -1.5794    0.0000 C   0  0  0  0  0  0  0  0  0  0  0  0
   -1.7838   -0.3214    0.0000 C   0  0  0  0  0  0  0  0  0  0  0  0
   -2.4412   -1.6697    0.0000 C   0  0  0  0  0  0  0  0  0  0  0  0
   -1.1030    1.0151    0.0000 C   0  0  0  0  0  0  0  0  0  0  0  0
   -2.1638    2.0757    0.0000 C   0  0  0  0  0  0  0  0  0  0  0  0
   -3.5002    1.3945    0.0000 C   0  0  0  0  0  0  0  0  0  0  0  0
   -3.2654   -0.0870    0.0000 C   0  0  0  0  0  0  0  0  0  0  0  0
   -3.5257   -1.5642    0.0000 O   0  0  0  0  0  0  0  0  0  0  0  0
   -4.7633   -0.1657    0.0000 C   0  0  0  0  0  0  0  0  0  0  0  0
   -5.4442   -1.5022    0.0000 O   0  0  0  0  0  0  0  0  0  0  0  0
   -5.5804    1.0923    0.0000 C   0  0  0  0  0  0  0  0  0  0  0  0
   -7.0784    1.0136    0.0000 O   0  0  0  0  0  0  0  0  0  0  0  0
  1  2  1  0
  2  3  1  0
  3  4  2  0
  4  5  1  0
  5  6  2  0
  5  7  1  0
  7  8  2  0
  8  9  1  0
  9 10  1  0
 10 11  1  0
 11 12  1  0
 12 13  1  0
 13 14  2  0
 13 15  1  0
 15 16  1  0
 16 17  1  0
 16 18  1  0
 18 19  1  0
 19 20  1  0
 20 21  1  0
 21 22  1  0
 21 23  1  0
 23 24  2  0
 23 25  1  0
 25 26  1  0
  8  2  1  0
 18 11  1  0
 12  2  1  0
 21 16  1  0
M  END
> <Identifier>
5865.0

> <DILI>
0

$$$$

     RDKit          2D

 22 25  0  0  0  0  0  0  0  0999 V2000
    1.2125   -1.5642    0.0000 C   0  0  0  0  0  0  0  0  0  0  0  0
    1.9406   -0.2528    0.0000 C   0  0  0  0  0  0  0  0  0  0  0  0
    2.7123   -1.5390    0.0000 C   0  0  0  0  0  0  0  0  0  0  0  0
    4.2121   -1.5138    0.0000 O   0  0  0  0  0  0  0  0  0  0  0  0
    4.9402   -0.2024    0.0000 C   0  0  0  0  0  0  0  0  0  0  0  0
    6.4400   -0.1772    0.0000 O   0  0  0  0  0  0  0  0  0  0  0  0
    4.1685    1.0839    0.0000 C   0  0  0  0  0  0  0  0  0  0  0  0
    2.6687    1.0587    0.0000 C   0  0  0  0  0  0  0  0  0  0  0  0
    1.8970    2.3449    0.0000 C   0  0  0  0  0  0  0  0  0  0  0  0
    0.3972    2.3198    0.0000 C   0  0  0  0  0  0  0  0  0  0  0  0
   -0.3309    1.0083    0.0000 C   0  0  0  0  0  0  0  0  0  0  0  0
    0.4408   -0.2779    0.0000 C   0  0  0  0  0  0  0  0  0  0  0  0
   -0.2873   -1.5894    0.0000 C   0  0  0  0  0  0  0  0  0  0  0  0
   -1.7871   -1.6146    0.0000 C   0  0  0  0  0  0  0  0  0  0  0  0
   -2.5588   -0.3283    0.0000 C   0  0  0  0  0  0  0  0  0  0  0  0
   -3.2638   -1.6523    0.0000 C   0  0  0  0  0  0  0  0  0  0  0  0
   -1.8307    0.9831    0.0000 C   0  0  0  0  0  0  0  0  0  0  0  0
   -2.8529    2.0809    0.0000 C   0  0  0  0  0  0  0  0  0  0  0  0
   -4.2128    1.4478    0.0000 C   0  0  0  0  0  0  0  0  0  0  0  0
   -4.0310   -0.0411    0.0000 C   0  0  0  0  0  0  0  0  0  0  0  0
   -5.5308   -0.0663    0.0000 C   0  0  0  0  0  0  0  0  0  0  0  0
   -4.3439   -1.5081    0.0000 O   0  0  0  0  0  0  0  0  0  0  0  0
  1  2  1  0
  2  3  1  0
  3  4  1  0
  4  5  1  0
  5  6  2  0
  5  7  1  0
  7  8  1  0
  8  9  1  0
  9 10  1  0
 10 11  1  0
 11 12  1  0
 12 13  1  0
 13 14  1  0
 14 15  1  0
 15 16  1  0
 15 17  1  0
 17 18  1  0
 18 19  1  0
 19 20  1  0
 20 21  1  0
 20 22  1  0
  8  2  1  0
 17 11  1  0
 12  2  1  0
 20 15  1  0
M  END
> <Identifier>
5878.0

> <DILI>
1

$$$$

     RDKit          2D

 34 37  0  0  0  0  0  0  0  0999 V2000
  -11.8335   -0.1327    0.0000 C   0  0  0  0  0  0  0  0  0  0  0  0
  -10.7064   -1.1224    0.0000 O   0  0  0  0  0  0  0  0  0  0  0  0
   -9.2857   -0.6411    0.0000 C   0  0  0  0  0  0  0  0  0  0  0  0
   -8.9921    0.8299    0.0000 C   0  0  0  0  0  0  0  0  0  0  0  0
   -7.5715    1.3112    0.0000 C   0  0  0  0  0  0  0  0  0  0  0  0
   -6.4443    0.3215    0.0000 C   0  0  0  0  0  0  0  0  0  0  0  0
   -5.0236    0.8028    0.0000 C   0  0  0  0  0  0  0  0  0  0  0  0
   -3.8964   -0.1869    0.0000 C   0  0  0  0  0  0  0  0  0  0  0  0
   -4.1900   -1.6579    0.0000 N   0  0  0  0  0  0  0  0  0  0  0  0
   -2.4758    0.2944    0.0000 C   0  0  0  0  0  0  0  0  0  0  0  0
   -2.1822    1.7654    0.0000 O   0  0  0  0  0  0  0  0  0  0  0  0
   -1.3486   -0.6953    0.0000 N   0  0  0  0  0  0  0  0  0  0  0  0
    0.0721   -0.2140    0.0000 C   0  0  0  0  0  0  0  0  0  0  0  0
    0.5178    1.2183    0.0000 C   0  0  0  0  0  0  0  0  0  0  0  0
   -0.3790    2.4207    0.0000 C   0  0  0  0  0  0  0  0  0  0  0  0
    0.2140    3.7985    0.0000 O   0  0  0  0  0  0  0  0  0  0  0  0
    2.0176    1.2370    0.0000 O   0  0  0  0  0  0  0  0  0  0  0  0
    2.4989   -0.1837    0.0000 C   0  0  0  0  0  0  0  0  0  0  0  0
    3.9312   -0.6294    0.0000 N   0  0  0  0  0  0  0  0  0  0  0  0
    4.4125   -2.0501    0.0000 C   0  0  0  0  0  0  0  0  0  0  0  0
    5.9124   -2.0313    0.0000 N   0  0  0  0  0  0  0  0  0  0  0  0
    6.3581   -0.5991    0.0000 C   0  0  0  0  0  0  0  0  0  0  0  0
    7.7207    0.0281    0.0000 C   0  0  0  0  0  0  0  0  0  0  0  0
    8.9451   -0.8384    0.0000 N   0  0  0  0  0  0  0  0  0  0  0  0
   10.3077   -0.2112    0.0000 C   0  0  0  0  0  0  0  0  0  0  0  0
    8.8069   -2.3320    0.0000 C   0  0  0  0  0  0  0  0  0  0  0  0
    7.8588    1.5217    0.0000 N   0  0  0  0  0  0  0  0  0  0  0  0
    6.6344    2.3882    0.0000 C   0  0  0  0  0  0  0  0  0  0  0  0
    5.2718    1.7610    0.0000 N   0  0  0  0  0  0  0  0  0  0  0  0
    5.1336    0.2674    0.0000 C   0  0  0  0  0  0  0  0  0  0  0  0
    1.2965   -1.0804    0.0000 C   0  0  0  0  0  0  0  0  0  0  0  0
    1.3152   -2.5803    0.0000 O   0  0  0  0  0  0  0  0  0  0  0  0
   -6.7378   -1.1495    0.0000 C   0  0  0  0  0  0  0  0  0  0  0  0
   -8.1585   -1.6308    0.0000 C   0  0  0  0  0  0  0  0  0  0  0  0
  1  2  1  0
  2  3  1  0
  3  4  2  0
  4  5  1  0
  5  6  2  0
  6  7  1  0
  7  8  1  0
  8  9  1  0
  8 10  1  0
 10 11  2  0
 10 12  1  0
 12 13  1  0
 13 14  1  0
 14 15  1  0
 15 16  1  0
 14 17  1  0
 17 18  1  0
 18 19  1  0
 19 20  1  0
 20 21  2  0
 21 22  1  0
 22 23  2  0
 23 24  1  0
 24 25  1  0
 24 26  1  0
 23 27  1  0
 27 28  2  0
 28 29  1  0
 29 30  2  0
 18 31  1  0
 31 32  1  0
  6 33  1  0
 33 34  2  0
 34  3  1  0
 31 13  1  0
 30 19  1  0
 30 22  1  0
M  END
> <Identifier>
5891.0

> <DILI>
1

$$$$

     RDKit          2D

 17 19  0  0  0  0  0  0  0  0999 V2000
   -6.1716   -0.2570    0.0000 C   0  0  0  0  0  0  0  0  0  0  0  0
   -4.7301    0.1580    0.0000 C   0  0  0  0  0  0  0  0  0  0  0  0
   -4.3689    1.6139    0.0000 O   0  0  0  0  0  0  0  0  0  0  0  0
   -3.6500   -0.8827    0.0000 N   0  0  0  0  0  0  0  0  0  0  0  0
   -2.2085   -0.4677    0.0000 C   0  0  0  0  0  0  0  0  0  0  0  0
   -1.8473    0.9882    0.0000 C   0  0  0  0  0  0  0  0  0  0  0  0
   -0.4059    1.4033    0.0000 C   0  0  0  0  0  0  0  0  0  0  0  0
    0.6743    0.3625    0.0000 C   0  0  0  0  0  0  0  0  0  0  0  0
    0.3131   -1.0934    0.0000 C   0  0  0  0  0  0  0  0  0  0  0  0
   -1.1284   -1.5084    0.0000 C   0  0  0  0  0  0  0  0  0  0  0  0
    1.5860   -1.8868    0.0000 C   0  0  0  0  0  0  0  0  0  0  0  0
    2.7340   -0.9214    0.0000 C   0  0  0  0  0  0  0  0  0  0  0  0
    4.2197   -1.1285    0.0000 C   0  0  0  0  0  0  0  0  0  0  0  0
    5.1418    0.0546    0.0000 C   0  0  0  0  0  0  0  0  0  0  0  0
    4.5784    1.4447    0.0000 C   0  0  0  0  0  0  0  0  0  0  0  0
    3.0927    1.6518    0.0000 C   0  0  0  0  0  0  0  0  0  0  0  0
    2.1706    0.4688    0.0000 C   0  0  0  0  0  0  0  0  0  0  0  0
  1  2  1  0
  2  3  2  0
  2  4  1  0
  4  5  1  0
  5  6  2  0
  6  7  1  0
  7  8  2  0
  8  9  1  0
  9 10  2  0
  9 11  1  0
 11 12  1  0
 12 13  2  0
 13 14  1  0
 14 15  2  0
 15 16  1  0
 16 17  2  0
 10  5  1  0
 17 12  1  0
 17  8  1  0
M  END
> <Identifier>
5897.0

> <DILI>
1

$$$$

     RDKit          2D

 23 25  0  0  0  0  0  0  0  0999 V2000
   -2.5761   -3.0750    0.0000 C   0  0  0  0  0  0  0  0  0  0  0  0
   -2.9872   -1.6324    0.0000 C   0  0  0  0  0  0  0  0  0  0  0  0
   -4.3789   -2.1920    0.0000 C   0  0  0  0  0  0  0  0  0  0  0  0
   -1.5096   -1.3744    0.0000 S   0  0  0  0  0  0  0  0  0  0  0  0
   -1.2984    0.1107    0.0000 C   0  0  0  0  0  0  0  0  0  0  0  0
   -0.6386    1.4578    0.0000 C   0  0  0  0  0  0  0  0  0  0  0  0
    0.7805    1.9438    0.0000 N   0  0  0  0  0  0  0  0  0  0  0  0
    1.9109    0.9579    0.0000 C   0  0  0  0  0  0  0  0  0  0  0  0
    1.6223   -0.5141    0.0000 O   0  0  0  0  0  0  0  0  0  0  0  0
    3.3300    1.4439    0.0000 C   0  0  0  0  0  0  0  0  0  0  0  0
    4.4604    0.4579    0.0000 C   0  0  0  0  0  0  0  0  0  0  0  0
    4.1718   -1.0140    0.0000 C   0  0  0  0  0  0  0  0  0  0  0  0
    5.3022   -2.0000    0.0000 C   0  0  0  0  0  0  0  0  0  0  0  0
    6.7213   -1.5140    0.0000 C   0  0  0  0  0  0  0  0  0  0  0  0
    7.0100   -0.0420    0.0000 C   0  0  0  0  0  0  0  0  0  0  0  0
    5.8795    0.9439    0.0000 C   0  0  0  0  0  0  0  0  0  0  0  0
   -1.9857    2.1176    0.0000 C   0  0  0  0  0  0  0  0  0  0  0  0
   -2.4717    3.5366    0.0000 O   0  0  0  0  0  0  0  0  0  0  0  0
   -2.6455    0.7705    0.0000 N   0  0  0  0  0  0  0  0  0  0  0  0
   -3.6892   -0.3068    0.0000 C   0  0  0  0  0  0  0  0  0  0  0  0
   -5.1743   -0.0956    0.0000 C   0  0  0  0  0  0  0  0  0  0  0  0
   -6.0997   -1.2761    0.0000 O   0  0  0  0  0  0  0  0  0  0  0  0
   -5.7339    1.2961    0.0000 O   0  0  0  0  0  0  0  0  0  0  0  0
  1  2  1  0
  2  3  1  0
  2  4  1  0
  4  5  1  0
  5  6  1  0
  6  7  1  0
  7  8  1  0
  8  9  2  0
  8 10  1  0
 10 11  1  0
 11 12  2  0
 12 13  1  0
 13 14  2  0
 14 15  1  0
 15 16  2  0
  6 17  1  0
 17 18  2  0
 17 19  1  0
 19 20  1  0
 20 21  1  0
 21 22  2  0
 21 23  1  0
 20  2  1  0
 19  5  1  0
 16 11  1  0
M  END
> <Identifier>
5904.0

> <DILI>
0

$$$$

     RDKit          2D

 17 18  0  0  0  0  0  0  0  0999 V2000
   -5.2259   -0.0425    0.0000 O   0  0  0  0  0  0  0  0  0  0  0  0
   -3.7273    0.0224    0.0000 C   0  0  0  0  0  0  0  0  0  0  0  0
   -3.0342    1.3527    0.0000 N   0  0  0  0  0  0  0  0  0  0  0  0
   -1.5357    1.4176    0.0000 C   0  0  0  0  0  0  0  0  0  0  0  0
   -0.8426    2.7479    0.0000 O   0  0  0  0  0  0  0  0  0  0  0  0
   -0.7301    0.1523    0.0000 N   0  0  0  0  0  0  0  0  0  0  0  0
    0.7685    0.2172    0.0000 C   0  0  0  0  0  0  0  0  0  0  0  0
    1.5968    1.4678    0.0000 C   0  0  0  0  0  0  0  0  0  0  0  0
    3.0421    1.0664    0.0000 C   0  0  0  0  0  0  0  0  0  0  0  0
    4.2163    1.9998    0.0000 O   0  0  0  0  0  0  0  0  0  0  0  0
    3.1070   -0.4322    0.0000 C   0  0  0  0  0  0  0  0  0  0  0  0
    4.3576   -1.2605    0.0000 C   0  0  0  0  0  0  0  0  0  0  0  0
    4.2655   -2.7577    0.0000 O   0  0  0  0  0  0  0  0  0  0  0  0
    1.7018   -0.9570    0.0000 O   0  0  0  0  0  0  0  0  0  0  0  0
   -1.4232   -1.1780    0.0000 C   0  0  0  0  0  0  0  0  0  0  0  0
   -2.9218   -1.2429    0.0000 C   0  0  0  0  0  0  0  0  0  0  0  0
   -3.6149   -2.5732    0.0000 I   0  0  0  0  0  0  0  0  0  0  0  0
  1  2  2  0
  2  3  1  0
  3  4  1  0
  4  5  2  0
  4  6  1  0
  6  7  1  0
  7  8  1  0
  8  9  1  0
  9 10  1  0
  9 11  1  0
 11 12  1  0
 12 13  1  0
 11 14  1  0
  6 15  1  0
 15 16  2  0
 16 17  1  0
 16  2  1  0
 14  7  1  0
M  END
> <Identifier>
5905.0

> <DILI>
1

$$$$

     RDKit          2D

 15 16  0  0  0  0  0  0  0  0999 V2000
    4.1222   -1.9365    0.0000 C   0  0  0  0  0  0  0  0  0  0  0  0
    2.6285   -1.7990    0.0000 C   0  0  0  0  0  0  0  0  0  0  0  0
    2.0007   -0.4366    0.0000 C   0  0  0  0  0  0  0  0  0  0  0  0
    2.7339    0.8720    0.0000 C   0  0  0  0  0  0  0  0  0  0  0  0
    4.2235    1.0480    0.0000 O   0  0  0  0  0  0  0  0  0  0  0  0
    1.7159    1.9736    0.0000 O   0  0  0  0  0  0  0  0  0  0  0  0
    0.3535    1.3459    0.0000 C   0  0  0  0  0  0  0  0  0  0  0  0
    0.5296   -0.1437    0.0000 C   0  0  0  0  0  0  0  0  0  0  0  0
   -0.5721   -1.1618    0.0000 C   0  0  0  0  0  0  0  0  0  0  0  0
   -2.0045   -0.7167    0.0000 C   0  0  0  0  0  0  0  0  0  0  0  0
   -3.2066   -1.6140    0.0000 C   0  0  0  0  0  0  0  0  0  0  0  0
   -4.4314   -0.7481    0.0000 N   0  0  0  0  0  0  0  0  0  0  0  0
   -3.9863    0.6844    0.0000 C   0  0  0  0  0  0  0  0  0  0  0  0
   -2.4864    0.7038    0.0000 N   0  0  0  0  0  0  0  0  0  0  0  0
   -1.6205    1.9286    0.0000 C   0  0  0  0  0  0  0  0  0  0  0  0
  1  2  1  0
  2  3  1  0
  3  4  1  0
  4  5  2  0
  4  6  1  0
  6  7  1  0
  7  8  1  0
  8  9  1  0
  9 10  1  0
 10 11  2  0
 11 12  1  0
 12 13  2  0
 13 14  1  0
 14 15  1  0
  8  3  1  0
 14 10  1  0
M  END
> <Identifier>
5910.0

> <DILI>
0

$$$$

     RDKit          2D

 23 24  0  0  0  0  0  0  0  0999 V2000
   -4.8595    1.3864    0.0000 N   0  0  0  0  0  0  0  0  0  0  0  0
   -5.0036   -0.1067    0.0000 C   0  0  0  0  0  0  0  0  0  0  0  0
   -3.7827   -0.9780    0.0000 C   0  0  0  0  0  0  0  0  0  0  0  0
   -2.4176   -0.3563    0.0000 C   0  0  0  0  0  0  0  0  0  0  0  0
   -2.2734    1.1368    0.0000 C   0  0  0  0  0  0  0  0  0  0  0  0
   -0.9084    1.7585    0.0000 C   0  0  0  0  0  0  0  0  0  0  0  0
   -0.7642    3.2515    0.0000 I   0  0  0  0  0  0  0  0  0  0  0  0
    0.3126    0.8871    0.0000 C   0  0  0  0  0  0  0  0  0  0  0  0
    1.6777    1.5088    0.0000 O   0  0  0  0  0  0  0  0  0  0  0  0
    2.8987    0.6375    0.0000 C   0  0  0  0  0  0  0  0  0  0  0  0
    2.7545   -0.8556    0.0000 C   0  0  0  0  0  0  0  0  0  0  0  0
    3.9755   -1.7269    0.0000 C   0  0  0  0  0  0  0  0  0  0  0  0
    5.3406   -1.1052    0.0000 C   0  0  0  0  0  0  0  0  0  0  0  0
    6.5615   -1.9766    0.0000 O   0  0  0  0  0  0  0  0  0  0  0  0
    5.4847    0.3878    0.0000 C   0  0  0  0  0  0  0  0  0  0  0  0
    6.8498    1.0095    0.0000 I   0  0  0  0  0  0  0  0  0  0  0  0
    4.2638    1.2592    0.0000 C   0  0  0  0  0  0  0  0  0  0  0  0
    0.1685   -0.6059    0.0000 C   0  0  0  0  0  0  0  0  0  0  0  0
    1.3894   -1.4773    0.0000 I   0  0  0  0  0  0  0  0  0  0  0  0
   -1.1966   -1.2277    0.0000 C   0  0  0  0  0  0  0  0  0  0  0  0
   -6.3687   -0.7284    0.0000 C   0  0  0  0  0  0  0  0  0  0  0  0
   -6.5129   -2.2214    0.0000 O   0  0  0  0  0  0  0  0  0  0  0  0
   -7.5897    0.1430    0.0000 O   0  0  0  0  0  0  0  0  0  0  0  0
  1  2  1  0
  2  3  1  0
  3  4  1  0
  4  5  2  0
  5  6  1  0
  6  7  1  0
  6  8  2  0
  8  9  1  0
  9 10  1  0
 10 11  2  0
 11 12  1  0
 12 13  2  0
 13 14  1  0
 13 15  1  0
 15 16  1  0
 15 17  2  0
  8 18  1  0
 18 19  1  0
 18 20  2  0
  2 21  1  0
 21 22  2  0
 21 23  1  0
 20  4  1  0
 17 10  1  0
M  END
> <Identifier>
5920.0

> <DILI>
0

$$$$

     RDKit          2D

 20 22  0  0  0  0  0  0  0  0999 V2000
   -7.0993   -0.1232    0.0000 C   0  0  0  0  0  0  0  0  0  0  0  0
   -5.8251   -0.9146    0.0000 N   0  0  0  0  0  0  0  0  0  0  0  0
   -4.5026   -0.2067    0.0000 C   0  0  0  0  0  0  0  0  0  0  0  0
   -4.4544    1.2925    0.0000 O   0  0  0  0  0  0  0  0  0  0  0  0
   -3.2284   -0.9981    0.0000 O   0  0  0  0  0  0  0  0  0  0  0  0
   -1.9059   -0.2902    0.0000 C   0  0  0  0  0  0  0  0  0  0  0  0
   -1.8577    1.2090    0.0000 C   0  0  0  0  0  0  0  0  0  0  0  0
   -0.5352    1.9168    0.0000 C   0  0  0  0  0  0  0  0  0  0  0  0
    0.7391    1.1255    0.0000 C   0  0  0  0  0  0  0  0  0  0  0  0
    0.6909   -0.3738    0.0000 C   0  0  0  0  0  0  0  0  0  0  0  0
   -0.6316   -1.0816    0.0000 C   0  0  0  0  0  0  0  0  0  0  0  0
    2.1018   -0.8829    0.0000 C   0  0  0  0  0  0  0  0  0  0  0  0
    1.1816   -2.0675    0.0000 C   0  0  0  0  0  0  0  0  0  0  0  0
    2.9440   -2.1241    0.0000 C   0  0  0  0  0  0  0  0  0  0  0  0
    4.3848   -1.7067    0.0000 C   0  0  0  0  0  0  0  0  0  0  0  0
    4.4330   -0.2075    0.0000 N   0  0  0  0  0  0  0  0  0  0  0  0
    5.6742    0.6347    0.0000 C   0  0  0  0  0  0  0  0  0  0  0  0
    3.0220    0.3017    0.0000 C   0  0  0  0  0  0  0  0  0  0  0  0
    2.1798    1.5429    0.0000 N   0  0  0  0  0  0  0  0  0  0  0  0
    2.6890    2.9538    0.0000 C   0  0  0  0  0  0  0  0  0  0  0  0
  1  2  1  0
  2  3  1  0
  3  4  2  0
  3  5  1  0
  5  6  1  0
  6  7  2  0
  7  8  1  0
  8  9  2  0
  9 10  1  0
 10 11  2  0
 10 12  1  0
 12 13  1  0
 12 14  1  0
 14 15  1  0
 15 16  1  0
 16 17  1  0
 16 18  1  0
 18 19  1  0
 19 20  1  0
 11  6  1  0
 18 12  1  0
 19  9  1  0
M  END
> <Identifier>
5983.0

> <DILI>
0

$$$$

     RDKit          2D

 26 28  0  0  0  0  0  0  0  0999 V2000
   -7.6668   -0.6455    0.0000 C   0  0  0  0  0  0  0  0  0  0  0  0
   -6.4241   -1.4856    0.0000 C   0  0  0  0  0  0  0  0  0  0  0  0
   -6.5304   -2.9818    0.0000 O   0  0  0  0  0  0  0  0  0  0  0  0
   -5.0752   -0.8295    0.0000 O   0  0  0  0  0  0  0  0  0  0  0  0
   -3.8326   -1.6697    0.0000 C   0  0  0  0  0  0  0  0  0  0  0  0
   -2.4837   -1.0136    0.0000 C   0  0  0  0  0  0  0  0  0  0  0  0
   -2.3774    0.4826    0.0000 C   0  0  0  0  0  0  0  0  0  0  0  0
   -3.6200    1.3228    0.0000 C   0  0  0  0  0  0  0  0  0  0  0  0
   -4.9689    0.6667    0.0000 O   0  0  0  0  0  0  0  0  0  0  0  0
   -3.5138    2.8190    0.0000 O   0  0  0  0  0  0  0  0  0  0  0  0
   -1.0285    1.1387    0.0000 N   0  0  0  0  0  0  0  0  0  0  0  0
   -0.1883    2.3814    0.0000 C   0  0  0  0  0  0  0  0  0  0  0  0
   -0.4730    3.8541    0.0000 O   0  0  0  0  0  0  0  0  0  0  0  0
    1.0543    1.5412    0.0000 C   0  0  0  0  0  0  0  0  0  0  0  0
    2.5270    1.8258    0.0000 N   0  0  0  0  0  0  0  0  0  0  0  0
    3.5099    0.6927    0.0000 C   0  0  0  0  0  0  0  0  0  0  0  0
    3.0200   -0.7251    0.0000 O   0  0  0  0  0  0  0  0  0  0  0  0
    4.9826    0.9773    0.0000 C   0  0  0  0  0  0  0  0  0  0  0  0
    5.9655   -0.1558    0.0000 C   0  0  0  0  0  0  0  0  0  0  0  0
    7.4599   -0.0267    0.0000 C   0  0  0  0  0  0  0  0  0  0  0  0
    8.0445   -1.4081    0.0000 C   0  0  0  0  0  0  0  0  0  0  0  0
    6.9114   -2.3910    0.0000 C   0  0  0  0  0  0  0  0  0  0  0  0
    5.6265   -1.6170    0.0000 S   0  0  0  0  0  0  0  0  0  0  0  0
    0.2141    0.2986    0.0000 C   0  0  0  0  0  0  0  0  0  0  0  0
    0.1079   -1.1977    0.0000 S   0  0  0  0  0  0  0  0  0  0  0  0
   -1.2410   -1.8537    0.0000 C   0  0  0  0  0  0  0  0  0  0  0  0
  1  2  1  0
  2  3  2  0
  2  4  1  0
  4  5  1  0
  5  6  1  0
  6  7  2  0
  7  8  1  0
  8  9  2  0
  8 10  1  0
  7 11  1  0
 11 12  1  0
 12 13  2  0
 12 14  1  0
 14 15  1  0
 15 16  1  0
 16 17  2  0
 16 18  1  0
 18 19  1  0
 19 20  2  0
 20 21  1  0
 21 22  2  0
 22 23  1  0
 14 24  1  0
 24 25  1  0
 25 26  1  0
 26  6  1  0
 24 11  1  0
 23 19  1  0
M  END
> <Identifier>
6024.0

> <DILI>
1

$$$$

     RDKit          2D

 33 35  0  0  0  0  0  0  0  0999 V2000
    1.6781   -3.2122    0.0000 N   0  0  0  0  0  0  0  0  0  0  0  0
    3.1772   -3.1614    0.0000 C   0  0  0  0  0  0  0  0  0  0  0  0
    3.8827   -1.8376    0.0000 C   0  0  0  0  0  0  0  0  0  0  0  0
    3.0891   -0.5648    0.0000 O   0  0  0  0  0  0  0  0  0  0  0  0
    3.7946    0.7590    0.0000 C   0  0  0  0  0  0  0  0  0  0  0  0
    3.0010    2.0318    0.0000 O   0  0  0  0  0  0  0  0  0  0  0  0
    1.5019    1.9809    0.0000 C   0  0  0  0  0  0  0  0  0  0  0  0
    0.7082    3.2538    0.0000 C   0  0  0  0  0  0  0  0  0  0  0  0
    1.4138    4.5775    0.0000 N   0  0  0  0  0  0  0  0  0  0  0  0
   -0.7909    3.2029    0.0000 C   0  0  0  0  0  0  0  0  0  0  0  0
   -1.4964    1.8792    0.0000 C   0  0  0  0  0  0  0  0  0  0  0  0
   -2.9955    1.8283    0.0000 N   0  0  0  0  0  0  0  0  0  0  0  0
   -0.7028    0.6064    0.0000 C   0  0  0  0  0  0  0  0  0  0  0  0
   -1.4083   -0.7174    0.0000 O   0  0  0  0  0  0  0  0  0  0  0  0
   -2.9074   -0.7682    0.0000 C   0  0  0  0  0  0  0  0  0  0  0  0
   -3.7011    0.5046    0.0000 O   0  0  0  0  0  0  0  0  0  0  0  0
   -5.2002    0.4538    0.0000 C   0  0  0  0  0  0  0  0  0  0  0  0
   -5.9938    1.7266    0.0000 C   0  0  0  0  0  0  0  0  0  0  0  0
   -5.2883    3.0503    0.0000 O   0  0  0  0  0  0  0  0  0  0  0  0
   -5.9057   -0.8700    0.0000 C   0  0  0  0  0  0  0  0  0  0  0  0
   -7.4049   -0.9208    0.0000 O   0  0  0  0  0  0  0  0  0  0  0  0
   -5.1121   -2.1428    0.0000 C   0  0  0  0  0  0  0  0  0  0  0  0
   -5.8176   -3.4666    0.0000 N   0  0  0  0  0  0  0  0  0  0  0  0
   -3.6130   -2.0920    0.0000 C   0  0  0  0  0  0  0  0  0  0  0  0
   -2.8193   -3.3648    0.0000 O   0  0  0  0  0  0  0  0  0  0  0  0
    0.7964    0.6572    0.0000 C   0  0  0  0  0  0  0  0  0  0  0  0
    1.5900   -0.6156    0.0000 O   0  0  0  0  0  0  0  0  0  0  0  0
    5.2938    0.8098    0.0000 C   0  0  0  0  0  0  0  0  0  0  0  0
    5.9993    2.1335    0.0000 O   0  0  0  0  0  0  0  0  0  0  0  0
    6.0874   -0.4630    0.0000 C   0  0  0  0  0  0  0  0  0  0  0  0
    7.5865   -0.4122    0.0000 O   0  0  0  0  0  0  0  0  0  0  0  0
    5.3819   -1.7868    0.0000 C   0  0  0  0  0  0  0  0  0  0  0  0
    6.1755   -3.0596    0.0000 O   0  0  0  0  0  0  0  0  0  0  0  0
  1  2  1  0
  2  3  1  0
  3  4  1  0
  4  5  1  0
  5  6  1  0
  6  7  1  0
  7  8  1  0
  8  9  1  0
  8 10  1  0
 10 11  1  0
 11 12  1  0
 11 13  1  0
 13 14  1  0
 14 15  1  0
 15 16  1  0
 16 17  1  0
 17 18  1  0
 18 19  1  0
 17 20  1  0
 20 21  1  0
 20 22  1  0
 22 23  1  0
 22 24  1  0
 24 25  1  0
 13 26  1  0
 26 27  1  0
  5 28  1  0
 28 29  1  0
 28 30  1  0
 30 31  1  0
 30 32  1  0
 32 33  1  0
 32  3  1  0
 26  7  1  0
 24 15  1  0
M  END
> <Identifier>
6032.0

> <DILI>
0

$$$$

     RDKit          2D

 14 14  0  0  0  0  0  0  0  0999 V2000
   -2.0094    1.6916    0.0000 N   0  0  0  0  0  0  0  0  0  0  0  0
   -2.3243    0.2250    0.0000 C   0  0  0  0  0  0  0  0  0  0  0  0
   -1.2116   -0.7809    0.0000 C   0  0  0  0  0  0  0  0  0  0  0  0
    0.2159   -0.3203    0.0000 C   0  0  0  0  0  0  0  0  0  0  0  0
    0.5308    1.1463    0.0000 C   0  0  0  0  0  0  0  0  0  0  0  0
    1.9583    1.6069    0.0000 C   0  0  0  0  0  0  0  0  0  0  0  0
    3.0710    0.6009    0.0000 C   0  0  0  0  0  0  0  0  0  0  0  0
    4.4985    1.0615    0.0000 O   0  0  0  0  0  0  0  0  0  0  0  0
    2.7561   -0.8657    0.0000 C   0  0  0  0  0  0  0  0  0  0  0  0
    3.8688   -1.8716    0.0000 O   0  0  0  0  0  0  0  0  0  0  0  0
    1.3286   -1.3263    0.0000 C   0  0  0  0  0  0  0  0  0  0  0  0
   -3.7518   -0.2356    0.0000 C   0  0  0  0  0  0  0  0  0  0  0  0
   -4.0666   -1.7022    0.0000 O   0  0  0  0  0  0  0  0  0  0  0  0
   -4.8644    0.7704    0.0000 O   0  0  0  0  0  0  0  0  0  0  0  0
  1  2  1  0
  2  3  1  0
  3  4  1  0
  4  5  2  0
  5  6  1  0
  6  7  2  0
  7  8  1  0
  7  9  1  0
  9 10  1  0
  9 11  2  0
  2 12  1  0
 12 13  2  0
 12 14  1  0
 11  4  1  0
M  END
> <Identifier>
6047.0

> <DILI>
0

$$$$

     RDKit          2D

 15 15  0  0  0  0  0  0  0  0999 V2000
   -4.5951   -1.2551    0.0000 C   0  0  0  0  0  0  0  0  0  0  0  0
   -3.1484   -1.6515    0.0000 O   0  0  0  0  0  0  0  0  0  0  0  0
   -2.0818   -0.5969    0.0000 C   0  0  0  0  0  0  0  0  0  0  0  0
   -2.4618    0.8542    0.0000 C   0  0  0  0  0  0  0  0  0  0  0  0
   -1.3951    1.9088    0.0000 C   0  0  0  0  0  0  0  0  0  0  0  0
    0.0515    1.5124    0.0000 C   0  0  0  0  0  0  0  0  0  0  0  0
    1.1182    2.5670    0.0000 O   0  0  0  0  0  0  0  0  0  0  0  0
    0.7382    4.0181    0.0000 C   0  0  0  0  0  0  0  0  0  0  0  0
    0.4316    0.0613    0.0000 C   0  0  0  0  0  0  0  0  0  0  0  0
    1.8782   -0.3351    0.0000 C   0  0  0  0  0  0  0  0  0  0  0  0
    2.9449    0.7196    0.0000 O   0  0  0  0  0  0  0  0  0  0  0  0
    2.2582   -1.7862    0.0000 C   0  0  0  0  0  0  0  0  0  0  0  0
    3.7049   -2.1826    0.0000 C   0  0  0  0  0  0  0  0  0  0  0  0
    1.1916   -2.8408    0.0000 N   0  0  0  0  0  0  0  0  0  0  0  0
   -0.6351   -0.9933    0.0000 C   0  0  0  0  0  0  0  0  0  0  0  0
  1  2  1  0
  2  3  1  0
  3  4  2  0
  4  5  1  0
  5  6  2  0
  6  7  1  0
  7  8  1  0
  6  9  1  0
  9 10  1  0
 10 11  1  0
 10 12  1  0
 12 13  1  0
 12 14  1  0
  9 15  2  0
 15  3  1  0
M  END
> <Identifier>
6082.0

> <DILI>
0

$$$$

     RDKit          2D

 29 32  0  0  0  0  0  0  0  0999 V2000
    1.9836    4.1251    0.0000 C   0  0  0  0  0  0  0  0  0  0  0  0
    2.9065    2.9427    0.0000 C   0  0  0  0  0  0  0  0  0  0  0  0
    4.4057    2.9944    0.0000 O   0  0  0  0  0  0  0  0  0  0  0  0
    4.9181    1.5846    0.0000 N   0  0  0  0  0  0  0  0  0  0  0  0
    3.7357    0.6616    0.0000 C   0  0  0  0  0  0  0  0  0  0  0  0
    3.7874   -0.8375    0.0000 C   0  0  0  0  0  0  0  0  0  0  0  0
    2.5150   -1.6318    0.0000 C   0  0  0  0  0  0  0  0  0  0  0  0
    2.5667   -3.1309    0.0000 C   0  0  0  0  0  0  0  0  0  0  0  0
    3.8908   -3.8357    0.0000 C   0  0  0  0  0  0  0  0  0  0  0  0
    5.1632   -3.0413    0.0000 C   0  0  0  0  0  0  0  0  0  0  0  0
    5.1115   -1.5422    0.0000 C   0  0  0  0  0  0  0  0  0  0  0  0
    6.3839   -0.7479    0.0000 Cl  0  0  0  0  0  0  0  0  0  0  0  0
    2.4925    1.5010    0.0000 C   0  0  0  0  0  0  0  0  0  0  0  0
    1.0827    0.9885    0.0000 C   0  0  0  0  0  0  0  0  0  0  0  0
    0.8216   -0.4886    0.0000 O   0  0  0  0  0  0  0  0  0  0  0  0
   -0.0659    1.9532    0.0000 N   0  0  0  0  0  0  0  0  0  0  0  0
   -1.4757    1.4408    0.0000 C   0  0  0  0  0  0  0  0  0  0  0  0
   -2.8349    2.0753    0.0000 C   0  0  0  0  0  0  0  0  0  0  0  0
   -3.3473    3.4850    0.0000 O   0  0  0  0  0  0  0  0  0  0  0  0
   -3.4694    0.7161    0.0000 N   0  0  0  0  0  0  0  0  0  0  0  0
   -2.1102    0.0816    0.0000 C   0  0  0  0  0  0  0  0  0  0  0  0
   -2.2936   -1.4072    0.0000 S   0  0  0  0  0  0  0  0  0  0  0  0
   -3.7662   -1.6928    0.0000 C   0  0  0  0  0  0  0  0  0  0  0  0
   -3.3282   -3.1274    0.0000 C   0  0  0  0  0  0  0  0  0  0  0  0
   -5.1472   -2.2783    0.0000 C   0  0  0  0  0  0  0  0  0  0  0  0
   -4.4928   -0.3805    0.0000 C   0  0  0  0  0  0  0  0  0  0  0  0
   -5.9816   -0.1971    0.0000 C   0  0  0  0  0  0  0  0  0  0  0  0
   -6.8848   -1.3947    0.0000 O   0  0  0  0  0  0  0  0  0  0  0  0
   -6.5671    1.1839    0.0000 O   0  0  0  0  0  0  0  0  0  0  0  0
  1  2  1  0
  2  3  1  0
  3  4  1  0
  4  5  2  0
  5  6  1  0
  6  7  2  0
  7  8  1  0
  8  9  2  0
  9 10  1  0
 10 11  2  0
 11 12  1  0
  5 13  1  0
 13 14  1  0
 14 15  2  0
 14 16  1  0
 16 17  1  0
 17 18  1  0
 18 19  2  0
 18 20  1  0
 20 21  1  0
 21 22  1  0
 22 23  1  0
 23 24  1  0
 23 25  1  0
 23 26  1  0
 26 27  1  0
 27 28  2  0
 27 29  1  0
 13  2  2  0
 21 17  1  0
 11  6  1  0
 26 20  1  0
M  END
> <Identifier>
6098.0

> <DILI>
1

$$$$

     RDKit          2D

 23 24  0  0  0  0  0  0  0  0999 V2000
    1.5036   -3.5670    0.0000 O   0  0  0  0  0  0  0  0  0  0  0  0
    2.7321   -2.7063    0.0000 C   0  0  0  0  0  0  0  0  0  0  0  0
    2.6010   -1.2121    0.0000 C   0  0  0  0  0  0  0  0  0  0  0  0
    1.2414   -0.5785    0.0000 O   0  0  0  0  0  0  0  0  0  0  0  0
    1.1103    0.9158    0.0000 C   0  0  0  0  0  0  0  0  0  0  0  0
   -0.2493    1.5494    0.0000 O   0  0  0  0  0  0  0  0  0  0  0  0
   -1.4778    0.6887    0.0000 C   0  0  0  0  0  0  0  0  0  0  0  0
   -2.8375    1.3223    0.0000 C   0  0  0  0  0  0  0  0  0  0  0  0
   -2.9686    2.8165    0.0000 C   0  0  0  0  0  0  0  0  0  0  0  0
   -4.3282    3.4501    0.0000 O   0  0  0  0  0  0  0  0  0  0  0  0
   -4.0660    0.4616    0.0000 O   0  0  0  0  0  0  0  0  0  0  0  0
   -3.9349   -1.0327    0.0000 C   0  0  0  0  0  0  0  0  0  0  0  0
   -5.1634   -1.8933    0.0000 O   0  0  0  0  0  0  0  0  0  0  0  0
   -2.5753   -1.6663    0.0000 C   0  0  0  0  0  0  0  0  0  0  0  0
   -2.4441   -3.1605    0.0000 O   0  0  0  0  0  0  0  0  0  0  0  0
   -1.3467   -0.8056    0.0000 C   0  0  0  0  0  0  0  0  0  0  0  0
    0.0129   -1.4392    0.0000 O   0  0  0  0  0  0  0  0  0  0  0  0
    2.3388    1.7764    0.0000 C   0  0  0  0  0  0  0  0  0  0  0  0
    2.2077    3.2707    0.0000 O   0  0  0  0  0  0  0  0  0  0  0  0
    3.6984    1.1429    0.0000 C   0  0  0  0  0  0  0  0  0  0  0  0
    4.9269    2.0035    0.0000 O   0  0  0  0  0  0  0  0  0  0  0  0
    3.8295   -0.3514    0.0000 C   0  0  0  0  0  0  0  0  0  0  0  0
    5.1891   -0.9850    0.0000 O   0  0  0  0  0  0  0  0  0  0  0  0
  1  2  1  0
  2  3  1  0
  3  4  1  0
  4  5  1  0
  5  6  1  0
  6  7  1  0
  7  8  1  0
  8  9  1  0
  9 10  1  0
  8 11  1  0
 11 12  1  0
 12 13  1  0
 12 14  1  0
 14 15  1  0
 14 16  1  0
 16 17  1  0
  5 18  1  0
 18 19  1  0
 18 20  1  0
 20 21  1  0
 20 22  1  0
 22 23  1  0
 22  3  1  0
 16  7  1  0
M  END
> <Identifier>
6134.0

> <DILI>
0

$$$$

     RDKit          2D

  9  8  0  0  0  0  0  0  0  0999 V2000
   -4.3420   -0.0894    0.0000 C   0  0  0  0  0  0  0  0  0  0  0  0
   -3.0029    0.5864    0.0000 S   0  0  0  0  0  0  0  0  0  0  0  0
   -1.7480   -0.2354    0.0000 C   0  0  0  0  0  0  0  0  0  0  0  0
   -0.4089    0.4403    0.0000 C   0  0  0  0  0  0  0  0  0  0  0  0
    0.8459   -0.3815    0.0000 C   0  0  0  0  0  0  0  0  0  0  0  0
    0.7616   -1.8791    0.0000 N   0  0  0  0  0  0  0  0  0  0  0  0
    2.1851    0.2943    0.0000 C   0  0  0  0  0  0  0  0  0  0  0  0
    2.2694    1.7919    0.0000 O   0  0  0  0  0  0  0  0  0  0  0  0
    3.4399   -0.5275    0.0000 O   0  0  0  0  0  0  0  0  0  0  0  0
  1  2  1  0
  2  3  1  0
  3  4  1  0
  4  5  1  0
  5  6  1  0
  5  7  1  0
  7  8  2  0
  7  9  1  0
M  END
> <Identifier>
6137.0

> <DILI>
0

$$$$

     RDKit          2D

 29 31  0  0  0  0  0  0  0  0999 V2000
    6.4602    1.0300    0.0000 C   0  0  0  0  0  0  0  0  0  0  0  0
    5.3062    1.9883    0.0000 O   0  0  0  0  0  0  0  0  0  0  0  0
    3.8993    1.4679    0.0000 C   0  0  0  0  0  0  0  0  0  0  0  0
    2.7453    2.4262    0.0000 C   0  0  0  0  0  0  0  0  0  0  0  0
    1.3384    1.9059    0.0000 C   0  0  0  0  0  0  0  0  0  0  0  0
    1.0856    0.4273    0.0000 C   0  0  0  0  0  0  0  0  0  0  0  0
    2.2396   -0.5309    0.0000 C   0  0  0  0  0  0  0  0  0  0  0  0
    1.9868   -2.0094    0.0000 O   0  0  0  0  0  0  0  0  0  0  0  0
    3.1408   -2.9677    0.0000 C   0  0  0  0  0  0  0  0  0  0  0  0
    3.6465   -0.0106    0.0000 C   0  0  0  0  0  0  0  0  0  0  0  0
    4.8005   -0.9688    0.0000 O   0  0  0  0  0  0  0  0  0  0  0  0
    4.5477   -2.4474    0.0000 C   0  0  0  0  0  0  0  0  0  0  0  0
   -0.2280   -0.2968    0.0000 C   0  0  0  0  0  0  0  0  0  0  0  0
    0.1857   -1.7387    0.0000 C   0  0  0  0  0  0  0  0  0  0  0  0
   -0.6836   -2.9611    0.0000 C   0  0  0  0  0  0  0  0  0  0  0  0
   -2.1813   -3.0436    0.0000 C   0  0  0  0  0  0  0  0  0  0  0  0
   -2.7568   -4.4288    0.0000 O   0  0  0  0  0  0  0  0  0  0  0  0
   -4.2442   -4.6230    0.0000 C   0  0  0  0  0  0  0  0  0  0  0  0
   -3.1797   -1.9240    0.0000 C   0  0  0  0  0  0  0  0  0  0  0  0
   -4.6215   -2.3378    0.0000 O   0  0  0  0  0  0  0  0  0  0  0  0
   -2.9268   -0.4455    0.0000 C   0  0  0  0  0  0  0  0  0  0  0  0
   -1.6132    0.2787    0.0000 C   0  0  0  0  0  0  0  0  0  0  0  0
   -2.0269    1.7205    0.0000 C   0  0  0  0  0  0  0  0  0  0  0  0
   -3.5055    1.9733    0.0000 N   0  0  0  0  0  0  0  0  0  0  0  0
   -4.0258    3.3802    0.0000 C   0  0  0  0  0  0  0  0  0  0  0  0
   -5.5043    3.6330    0.0000 C   0  0  0  0  0  0  0  0  0  0  0  0
   -3.0675    4.5342    0.0000 O   0  0  0  0  0  0  0  0  0  0  0  0
   -1.1576    2.9429    0.0000 C   0  0  0  0  0  0  0  0  0  0  0  0
    0.3401    3.0254    0.0000 C   0  0  0  0  0  0  0  0  0  0  0  0
  1  2  1  0
  2  3  1  0
  3  4  2  0
  4  5  1  0
  5  6  2  0
  6  7  1  0
  7  8  1  0
  8  9  1  0
  7 10  2  0
 10 11  1  0
 11 12  1  0
  6 13  1  0
 13 14  2  0
 14 15  1  0
 15 16  2  0
 16 17  1  0
 17 18  1  0
 16 19  1  0
 19 20  2  0
 19 21  1  0
 21 22  2  0
 22 23  1  0
 23 24  1  0
 24 25  1  0
 25 26  1  0
 25 27  2  0
 23 28  1  0
 28 29  1  0
 10  3  1  0
 22 13  1  0
 29  5  1  0
M  END
> <Identifier>
6167.0

> <DILI>
0

$$$$

     RDKit          2D

 15 15  0  0  0  0  0  0  0  0999 V2000
    5.0958   -0.2691    0.0000 O   0  0  0  0  0  0  0  0  0  0  0  0
    3.5961   -0.2409    0.0000 C   0  0  0  0  0  0  0  0  0  0  0  0
    2.8218   -1.5256    0.0000 N   0  0  0  0  0  0  0  0  0  0  0  0
    1.3221   -1.4974    0.0000 C   0  0  0  0  0  0  0  0  0  0  0  0
    0.5966   -0.1845    0.0000 C   0  0  0  0  0  0  0  0  0  0  0  0
   -0.9031   -0.1562    0.0000 N   0  0  0  0  0  0  0  0  0  0  0  0
   -1.6285    1.1567    0.0000 C   0  0  0  0  0  0  0  0  0  0  0  0
   -3.1283    1.1849    0.0000 C   0  0  0  0  0  0  0  0  0  0  0  0
   -3.8537    2.4978    0.0000 Cl  0  0  0  0  0  0  0  0  0  0  0  0
   -1.6774   -1.4409    0.0000 C   0  0  0  0  0  0  0  0  0  0  0  0
   -3.1771   -1.4127    0.0000 C   0  0  0  0  0  0  0  0  0  0  0  0
   -3.9515   -2.6974    0.0000 Cl  0  0  0  0  0  0  0  0  0  0  0  0
    1.3709    1.1002    0.0000 C   0  0  0  0  0  0  0  0  0  0  0  0
    0.6455    2.4132    0.0000 O   0  0  0  0  0  0  0  0  0  0  0  0
    2.8707    1.0720    0.0000 N   0  0  0  0  0  0  0  0  0  0  0  0
  1  2  2  0
  2  3  1  0
  3  4  1  0
  4  5  2  0
  5  6  1  0
  6  7  1  0
  7  8  1  0
  8  9  1  0
  6 10  1  0
 10 11  1  0
 11 12  1  0
  5 13  1  0
 13 14  2  0
 13 15  1  0
 15  2  1  0
M  END
> <Identifier>
6194.0

> <DILI>
1

$$$$

     RDKit          2D

 28 30  0  0  0  0  0  0  0  0999 V2000
   -5.8935   -3.0633    0.0000 C   0  0  0  0  0  0  0  0  0  0  0  0
   -6.2442   -1.6049    0.0000 C   0  0  0  0  0  0  0  0  0  0  0  0
   -7.6826   -1.1794    0.0000 C   0  0  0  0  0  0  0  0  0  0  0  0
   -8.0333    0.2790    0.0000 C   0  0  0  0  0  0  0  0  0  0  0  0
   -6.9457    1.3119    0.0000 C   0  0  0  0  0  0  0  0  0  0  0  0
   -7.2964    2.7704    0.0000 O   0  0  0  0  0  0  0  0  0  0  0  0
   -5.5073    0.8865    0.0000 C   0  0  0  0  0  0  0  0  0  0  0  0
   -5.1566   -0.5720    0.0000 C   0  0  0  0  0  0  0  0  0  0  0  0
   -3.7182   -0.9974    0.0000 C   0  0  0  0  0  0  0  0  0  0  0  0
   -2.6305    0.0355    0.0000 C   0  0  0  0  0  0  0  0  0  0  0  0
   -1.1921   -0.3900    0.0000 C   0  0  0  0  0  0  0  0  0  0  0  0
   -0.8414   -1.8484    0.0000 C   0  0  0  0  0  0  0  0  0  0  0  0
    0.5970   -2.2739    0.0000 C   0  0  0  0  0  0  0  0  0  0  0  0
    1.6847   -1.2409    0.0000 C   0  0  0  0  0  0  0  0  0  0  0  0
    1.3340    0.2175    0.0000 C   0  0  0  0  0  0  0  0  0  0  0  0
    2.8089   -0.0553    0.0000 C   0  0  0  0  0  0  0  0  0  0  0  0
   -0.1044    0.6430    0.0000 C   0  0  0  0  0  0  0  0  0  0  0  0
   -0.1443    2.1425    0.0000 C   0  0  0  0  0  0  0  0  0  0  0  0
    1.2695    2.6437    0.0000 C   0  0  0  0  0  0  0  0  0  0  0  0
    2.1831    1.4540    0.0000 C   0  0  0  0  0  0  0  0  0  0  0  0
    3.6826    1.4939    0.0000 C   0  0  0  0  0  0  0  0  0  0  0  0
    4.3978    2.8124    0.0000 C   0  0  0  0  0  0  0  0  0  0  0  0
    4.4668    0.2152    0.0000 C   0  0  0  0  0  0  0  0  0  0  0  0
    5.9663    0.2550    0.0000 C   0  0  0  0  0  0  0  0  0  0  0  0
    6.7505   -1.0236    0.0000 C   0  0  0  0  0  0  0  0  0  0  0  0
    8.2500   -0.9838    0.0000 C   0  0  0  0  0  0  0  0  0  0  0  0
    9.0342   -2.2624    0.0000 C   0  0  0  0  0  0  0  0  0  0  0  0
    8.9652    0.3347    0.0000 C   0  0  0  0  0  0  0  0  0  0  0  0
  1  2  2  0
  2  3  1  0
  3  4  1  0
  4  5  1  0
  5  6  1  0
  5  7  1  0
  7  8  1  0
  8  9  2  3
  9 10  1  0
 10 11  2  3
 11 12  1  0
 12 13  1  0
 13 14  1  0
 14 15  1  0
 15 16  1  0
 15 17  1  0
 17 18  1  0
 18 19  1  0
 19 20  1  0
 20 21  1  0
 21 22  1  0
 21 23  1  0
 23 24  1  0
 24 25  1  0
 25 26  1  0
 26 27  1  0
 26 28  1  0
  8  2  1  0
 17 11  1  0
 20 15  1  0
M  END
> <Identifier>
6221.0

> <DILI>
0

$$$$

     RDKit          2D

 22 25  0  0  0  0  0  0  0  0999 V2000
   -6.6574    0.0756    0.0000 C   0  0  0  0  0  0  0  0  0  0  0  0
   -5.1574    0.0691    0.0000 C   0  0  0  0  0  0  0  0  0  0  0  0
   -3.6574    0.0626    0.0000 C   0  0  0  0  0  0  0  0  0  0  0  0
   -3.9885    1.5256    0.0000 O   0  0  0  0  0  0  0  0  0  0  0  0
   -3.8207   -1.4285    0.0000 C   0  0  0  0  0  0  0  0  0  0  0  0
   -2.4530   -2.0446    0.0000 C   0  0  0  0  0  0  0  0  0  0  0  0
   -1.4445   -0.9342    0.0000 C   0  0  0  0  0  0  0  0  0  0  0  0
    0.0555   -0.9408    0.0000 C   0  0  0  0  0  0  0  0  0  0  0  0
    0.7999   -2.2430    0.0000 C   0  0  0  0  0  0  0  0  0  0  0  0
    2.2998   -2.2496    0.0000 C   0  0  0  0  0  0  0  0  0  0  0  0
    3.0555   -0.9538    0.0000 C   0  0  0  0  0  0  0  0  0  0  0  0
    4.5555   -0.9603    0.0000 C   0  0  0  0  0  0  0  0  0  0  0  0
    5.3111    0.3354    0.0000 C   0  0  0  0  0  0  0  0  0  0  0  0
    6.8111    0.3289    0.0000 O   0  0  0  0  0  0  0  0  0  0  0  0
    4.5668    1.6377    0.0000 C   0  0  0  0  0  0  0  0  0  0  0  0
    3.0668    1.6442    0.0000 C   0  0  0  0  0  0  0  0  0  0  0  0
    2.3111    0.3485    0.0000 C   0  0  0  0  0  0  0  0  0  0  0  0
    0.8112    0.3550    0.0000 C   0  0  0  0  0  0  0  0  0  0  0  0
    0.0668    1.6573    0.0000 C   0  0  0  0  0  0  0  0  0  0  0  0
   -1.4332    1.6638    0.0000 C   0  0  0  0  0  0  0  0  0  0  0  0
   -2.1888    0.3680    0.0000 C   0  0  0  0  0  0  0  0  0  0  0  0
   -2.9103    1.6831    0.0000 C   0  0  0  0  0  0  0  0  0  0  0  0
  1  2  3  0
  2  3  1  0
  3  4  1  0
  3  5  1  0
  5  6  1  0
  6  7  1  0
  7  8  1  0
  8  9  1  0
  9 10  1  0
 10 11  1  0
 11 12  2  0
 12 13  1  0
 13 14  2  0
 13 15  1  0
 15 16  1  0
 16 17  1  0
 17 18  1  0
 18 19  1  0
 19 20  1  0
 20 21  1  0
 21 22  1  0
 21  3  1  0
 21  7  1  0
 18  8  1  0
 17 11  1  0
M  END
> <Identifier>
6230.0

> <DILI>
0

$$$$

     RDKit          2D

 17 18  0  0  0  0  0  0  0  0999 V2000
    5.5837   -0.5153    0.0000 N   0  0  0  0  0  0  0  0  0  0  0  0
    4.0855   -0.4436    0.0000 C   0  0  0  0  0  0  0  0  0  0  0  0
    3.2743   -1.7054    0.0000 C   0  0  0  0  0  0  0  0  0  0  0  0
    1.7760   -1.6337    0.0000 C   0  0  0  0  0  0  0  0  0  0  0  0
    1.0889   -0.3004    0.0000 N   0  0  0  0  0  0  0  0  0  0  0  0
   -0.4094   -0.2287    0.0000 C   0  0  0  0  0  0  0  0  0  0  0  0
   -1.3480   -1.3988    0.0000 O   0  0  0  0  0  0  0  0  0  0  0  0
   -2.7508   -0.8677    0.0000 C   0  0  0  0  0  0  0  0  0  0  0  0
   -4.0051   -1.6904    0.0000 C   0  0  0  0  0  0  0  0  0  0  0  0
   -5.3447   -1.0155    0.0000 O   0  0  0  0  0  0  0  0  0  0  0  0
   -2.6792    0.6306    0.0000 C   0  0  0  0  0  0  0  0  0  0  0  0
   -3.8493    1.5692    0.0000 O   0  0  0  0  0  0  0  0  0  0  0  0
   -1.2321    1.0255    0.0000 C   0  0  0  0  0  0  0  0  0  0  0  0
   -0.7010    2.4283    0.0000 O   0  0  0  0  0  0  0  0  0  0  0  0
    1.9001    0.9614    0.0000 C   0  0  0  0  0  0  0  0  0  0  0  0
    1.2129    2.2947    0.0000 O   0  0  0  0  0  0  0  0  0  0  0  0
    3.3983    0.8897    0.0000 N   0  0  0  0  0  0  0  0  0  0  0  0
  1  2  1  0
  2  3  1  0
  3  4  2  0
  4  5  1  0
  5  6  1  0
  6  7  1  0
  7  8  1  0
  8  9  1  0
  9 10  1  0
  8 11  1  0
 11 12  1  0
 11 13  1  0
 13 14  1  0
  5 15  1  0
 15 16  2  0
 15 17  1  0
 17  2  2  0
 13  6  1  0
M  END
> <Identifier>
6253.0

> <DILI>
1

$$$$

     RDKit          2D

 12 11  0  0  0  0  0  0  0  0999 V2000
   -5.3876    0.7219    0.0000 N   0  0  0  0  0  0  0  0  0  0  0  0
   -4.1204   -0.0808    0.0000 C   0  0  0  0  0  0  0  0  0  0  0  0
   -4.1820   -1.5796    0.0000 N   0  0  0  0  0  0  0  0  0  0  0  0
   -2.7917    0.6152    0.0000 N   0  0  0  0  0  0  0  0  0  0  0  0
   -1.5245   -0.1875    0.0000 C   0  0  0  0  0  0  0  0  0  0  0  0
   -0.1958    0.5085    0.0000 C   0  0  0  0  0  0  0  0  0  0  0  0
    1.0713   -0.2943    0.0000 C   0  0  0  0  0  0  0  0  0  0  0  0
    2.4001    0.4018    0.0000 C   0  0  0  0  0  0  0  0  0  0  0  0
    2.4617    1.9005    0.0000 N   0  0  0  0  0  0  0  0  0  0  0  0
    3.6672   -0.4010    0.0000 C   0  0  0  0  0  0  0  0  0  0  0  0
    3.6056   -1.8997    0.0000 O   0  0  0  0  0  0  0  0  0  0  0  0
    4.9960    0.2950    0.0000 O   0  0  0  0  0  0  0  0  0  0  0  0
  1  2  1  0
  2  3  1  0
  2  4  2  0
  4  5  1  0
  5  6  1  0
  6  7  1  0
  7  8  1  0
  8  9  1  0
  8 10  1  0
 10 11  2  0
 10 12  1  0
M  END
> <Identifier>
6322.0

> <DILI>
0

$$$$

     RDKit          2D

  8  7  0  0  0  0  0  0  0  0999 V2000
    0.8885   -1.1655    0.0000 N   0  0  0  0  0  0  0  0  0  0  0  0
    0.1169    0.1208    0.0000 C   0  0  0  0  0  0  0  0  0  0  0  0
    1.4032    0.8925    0.0000 C   0  0  0  0  0  0  0  0  0  0  0  0
    2.7146    0.1643    0.0000 O   0  0  0  0  0  0  0  0  0  0  0  0
   -1.1694   -0.6508    0.0000 C   0  0  0  0  0  0  0  0  0  0  0  0
   -1.1443   -2.1506    0.0000 O   0  0  0  0  0  0  0  0  0  0  0  0
   -0.6548    1.4071    0.0000 C   0  0  0  0  0  0  0  0  0  0  0  0
   -2.1546    1.3820    0.0000 O   0  0  0  0  0  0  0  0  0  0  0  0
  1  2  1  0
  2  3  1  0
  3  4  1  0
  2  5  1  0
  5  6  1  0
  2  7  1  0
  7  8  1  0
M  END
> <Identifier>
6503.0

> <DILI>
0

$$$$

     RDKit          2D

 20 22  0  0  0  0  0  0  0  0999 V2000
    5.7000    0.0000    0.0000 C   0  0  0  0  0  0  0  0  0  0  0  0
    4.2000   -0.0000    0.0000 N   0  0  0  0  0  0  0  0  0  0  0  0
    3.4500   -1.2990    0.0000 C   0  0  0  0  0  0  0  0  0  0  0  0
    1.9500   -1.2990    0.0000 C   0  0  0  0  0  0  0  0  0  0  0  0
    1.2000    0.0000    0.0000 N   0  0  0  0  0  0  0  0  0  0  0  0
   -0.3000    0.0000    0.0000 C   0  0  0  0  0  0  0  0  0  0  0  0
   -1.0500    1.2990    0.0000 C   0  0  0  0  0  0  0  0  0  0  0  0
   -0.3000    2.5981    0.0000 C   0  0  0  0  0  0  0  0  0  0  0  0
   -1.0500    3.8971    0.0000 C   0  0  0  0  0  0  0  0  0  0  0  0
   -2.5500    3.8971    0.0000 C   0  0  0  0  0  0  0  0  0  0  0  0
   -3.3000    2.5981    0.0000 C   0  0  0  0  0  0  0  0  0  0  0  0
   -2.5500    1.2990    0.0000 C   0  0  0  0  0  0  0  0  0  0  0  0
   -1.0500   -1.2990    0.0000 C   0  0  0  0  0  0  0  0  0  0  0  0
   -2.5500   -1.2990    0.0000 C   0  0  0  0  0  0  0  0  0  0  0  0
   -3.3000   -2.5981    0.0000 C   0  0  0  0  0  0  0  0  0  0  0  0
   -2.5500   -3.8971    0.0000 C   0  0  0  0  0  0  0  0  0  0  0  0
   -1.0500   -3.8971    0.0000 C   0  0  0  0  0  0  0  0  0  0  0  0
   -0.3000   -2.5981    0.0000 C   0  0  0  0  0  0  0  0  0  0  0  0
    1.9500    1.2990    0.0000 C   0  0  0  0  0  0  0  0  0  0  0  0
    3.4500    1.2990    0.0000 C   0  0  0  0  0  0  0  0  0  0  0  0
  1  2  1  0
  2  3  1  0
  3  4  1  0
  4  5  1  0
  5  6  1  0
  6  7  1  0
  7  8  2  0
  8  9  1  0
  9 10  2  0
 10 11  1  0
 11 12  2  0
  6 13  1  0
 13 14  2  0
 14 15  1  0
 15 16  2  0
 16 17  1  0
 17 18  2  0
  5 19  1  0
 19 20  1  0
 20  2  1  0
 12  7  1  0
 18 13  1  0
M  END
> <Identifier>
6726.0

> <DILI>
0

$$$$

     RDKit          2D

 23 26  0  0  0  0  0  0  0  0999 V2000
    1.9772   -1.2615    0.0000 C   0  0  0  0  0  0  0  0  0  0  0  0
    2.6906   -0.9057    0.0000 N   0  0  0  0  0  0  0  0  0  0  0  0
    3.8141   -1.8995    0.0000 C   0  0  0  0  0  0  0  0  0  0  0  0
    5.1065   -1.1381    0.0000 C   0  0  0  0  0  0  0  0  0  0  0  0
    4.7817    0.3263    0.0000 C   0  0  0  0  0  0  0  0  0  0  0  0
    3.2886    0.4699    0.0000 C   0  0  0  0  0  0  0  0  0  0  0  0
    1.7872    0.3121    0.0000 C   0  0  0  0  0  0  0  0  0  0  0  0
    1.3362   -1.1185    0.0000 C   0  0  0  0  0  0  0  0  0  0  0  0
   -0.1282   -1.4433    0.0000 O   0  0  0  0  0  0  0  0  0  0  0  0
   -1.1417   -0.3375    0.0000 C   0  0  0  0  0  0  0  0  0  0  0  0
   -2.6061   -0.6623    0.0000 C   0  0  0  0  0  0  0  0  0  0  0  0
   -3.6196    0.4436    0.0000 C   0  0  0  0  0  0  0  0  0  0  0  0
   -5.0840    0.1188    0.0000 C   0  0  0  0  0  0  0  0  0  0  0  0
   -5.5349   -1.3118    0.0000 C   0  0  0  0  0  0  0  0  0  0  0  0
   -4.5214   -2.4177    0.0000 C   0  0  0  0  0  0  0  0  0  0  0  0
   -3.0570   -2.0929    0.0000 C   0  0  0  0  0  0  0  0  0  0  0  0
   -0.6907    1.0931    0.0000 C   0  0  0  0  0  0  0  0  0  0  0  0
    0.7737    1.4179    0.0000 C   0  0  0  0  0  0  0  0  0  0  0  0
    1.2246    2.8485    0.0000 C   0  0  0  0  0  0  0  0  0  0  0  0
    0.2111    3.9544    0.0000 C   0  0  0  0  0  0  0  0  0  0  0  0
   -1.2533    3.6296    0.0000 C   0  0  0  0  0  0  0  0  0  0  0  0
   -1.7042    2.1990    0.0000 C   0  0  0  0  0  0  0  0  0  0  0  0
    2.3497   -2.2243    0.0000 C   0  0  0  0  0  0  0  0  0  0  0  0
  1  2  1  0
  2  3  1  0
  3  4  1  0
  4  5  1  0
  5  6  1  0
  6  7  1  0
  7  8  1  0
  8  9  1  0
  9 10  1  0
 10 11  1  0
 11 12  2  0
 12 13  1  0
 13 14  2  0
 14 15  1  0
 15 16  2  0
 10 17  1  0
 17 18  2  0
 18 19  1  0
 19 20  2  0
 20 21  1  0
 21 22  2  0
  8 23  1  0
  6  2  1  0
 16 11  1  0
 22 17  1  0
 23  3  1  0
M  END
> <Identifier>
6832.0

> <DILI>
0

$$$$

     RDKit          2D

 14 16  0  0  0  0  0  0  0  0999 V2000
   -3.8971   -0.7500    0.0000 C   0  0  0  0  0  0  0  0  0  0  0  0
   -3.8971    0.7500    0.0000 C   0  0  0  0  0  0  0  0  0  0  0  0
   -2.5981    1.5000    0.0000 C   0  0  0  0  0  0  0  0  0  0  0  0
   -1.2990    0.7500    0.0000 C   0  0  0  0  0  0  0  0  0  0  0  0
   -1.2990   -0.7500    0.0000 C   0  0  0  0  0  0  0  0  0  0  0  0
   -2.5981   -1.5000    0.0000 C   0  0  0  0  0  0  0  0  0  0  0  0
    0.0000   -1.5000    0.0000 N   0  0  0  0  0  0  0  0  0  0  0  0
    1.2990   -0.7500    0.0000 C   0  0  0  0  0  0  0  0  0  0  0  0
    2.5981   -1.5000    0.0000 C   0  0  0  0  0  0  0  0  0  0  0  0
    3.8971   -0.7500    0.0000 C   0  0  0  0  0  0  0  0  0  0  0  0
    3.8971    0.7500    0.0000 C   0  0  0  0  0  0  0  0  0  0  0  0
    2.5981    1.5000    0.0000 C   0  0  0  0  0  0  0  0  0  0  0  0
    1.2990    0.7500    0.0000 C   0  0  0  0  0  0  0  0  0  0  0  0
   -0.0000    1.5000    0.0000 S   0  0  0  0  0  0  0  0  0  0  0  0
  1  2  2  0
  2  3  1  0
  3  4  2  0
  4  5  1  0
  5  6  2  0
  5  7  1  0
  7  8  1  0
  8  9  2  0
  9 10  1  0
 10 11  2  0
 11 12  1  0
 12 13  2  0
 13 14  1  0
  6  1  1  0
 13  8  1  0
 14  4  1  0
M  END
> <Identifier>
7108.0

> <DILI>
1

$$$$

     RDKit          2D

 42 42  0  0  0  0  0  0  0  0999 V2000
  -22.6121   -1.4379    0.0000 C   0  0  0  0  0  0  0  0  0  0  0  0
  -21.2875   -0.7341    0.0000 C   0  0  0  0  0  0  0  0  0  0  0  0
  -20.0157   -1.5293    0.0000 C   0  0  0  0  0  0  0  0  0  0  0  0
  -18.6911   -0.8254    0.0000 C   0  0  0  0  0  0  0  0  0  0  0  0
  -17.4192   -1.6206    0.0000 N   0  0  0  0  0  0  0  0  0  0  0  0
  -16.0946   -0.9168    0.0000 C   0  0  0  0  0  0  0  0  0  0  0  0
  -16.0418    0.5823    0.0000 C   0  0  0  0  0  0  0  0  0  0  0  0
  -14.7172    1.2862    0.0000 C   0  0  0  0  0  0  0  0  0  0  0  0
  -13.4454    0.4909    0.0000 C   0  0  0  0  0  0  0  0  0  0  0  0
  -12.1208    1.1948    0.0000 C   0  0  0  0  0  0  0  0  0  0  0  0
  -12.0680    2.6939    0.0000 O   0  0  0  0  0  0  0  0  0  0  0  0
  -10.8489    0.3996    0.0000 O   0  0  0  0  0  0  0  0  0  0  0  0
   -9.5243    1.1034    0.0000 C   0  0  0  0  0  0  0  0  0  0  0  0
   -8.2524    0.3082    0.0000 C   0  0  0  0  0  0  0  0  0  0  0  0
   -6.9278    1.0121    0.0000 O   0  0  0  0  0  0  0  0  0  0  0  0
   -5.6560    0.2169    0.0000 C   0  0  0  0  0  0  0  0  0  0  0  0
   -4.3314    0.9207    0.0000 C   0  0  0  0  0  0  0  0  0  0  0  0
   -3.0595    0.1255    0.0000 O   0  0  0  0  0  0  0  0  0  0  0  0
   -1.7349    0.8294    0.0000 C   0  0  0  0  0  0  0  0  0  0  0  0
   -0.4630    0.0342    0.0000 C   0  0  0  0  0  0  0  0  0  0  0  0
    0.8616    0.7380    0.0000 O   0  0  0  0  0  0  0  0  0  0  0  0
    2.1334   -0.0572    0.0000 C   0  0  0  0  0  0  0  0  0  0  0  0
    3.4580    0.6467    0.0000 C   0  0  0  0  0  0  0  0  0  0  0  0
    4.7299   -0.1486    0.0000 O   0  0  0  0  0  0  0  0  0  0  0  0
    6.0545    0.5553    0.0000 C   0  0  0  0  0  0  0  0  0  0  0  0
    7.3264   -0.2399    0.0000 C   0  0  0  0  0  0  0  0  0  0  0  0
    8.6510    0.4639    0.0000 O   0  0  0  0  0  0  0  0  0  0  0  0
    9.9229   -0.3313    0.0000 C   0  0  0  0  0  0  0  0  0  0  0  0
   11.2475    0.3726    0.0000 C   0  0  0  0  0  0  0  0  0  0  0  0
   12.5193   -0.4226    0.0000 O   0  0  0  0  0  0  0  0  0  0  0  0
   13.8439    0.2812    0.0000 C   0  0  0  0  0  0  0  0  0  0  0  0
   15.1158   -0.5140    0.0000 C   0  0  0  0  0  0  0  0  0  0  0  0
   16.4404    0.1899    0.0000 O   0  0  0  0  0  0  0  0  0  0  0  0
   17.7123   -0.6053    0.0000 C   0  0  0  0  0  0  0  0  0  0  0  0
   19.0369    0.0985    0.0000 C   0  0  0  0  0  0  0  0  0  0  0  0
   20.3087   -0.6967    0.0000 O   0  0  0  0  0  0  0  0  0  0  0  0
   21.6333    0.0072    0.0000 C   0  0  0  0  0  0  0  0  0  0  0  0
   22.9052   -0.7880    0.0000 C   0  0  0  0  0  0  0  0  0  0  0  0
   24.2298   -0.0842    0.0000 O   0  0  0  0  0  0  0  0  0  0  0  0
   25.5017   -0.8794    0.0000 C   0  0  0  0  0  0  0  0  0  0  0  0
  -13.4981   -1.0081    0.0000 C   0  0  0  0  0  0  0  0  0  0  0  0
  -14.8227   -1.7120    0.0000 C   0  0  0  0  0  0  0  0  0  0  0  0
  1  2  1  0
  2  3  1  0
  3  4  1  0
  4  5  1  0
  5  6  1  0
  6  7  2  0
  7  8  1  0
  8  9  2  0
  9 10  1  0
 10 11  2  0
 10 12  1  0
 12 13  1  0
 13 14  1  0
 14 15  1  0
 15 16  1  0
 16 17  1  0
 17 18  1  0
 18 19  1  0
 19 20  1  0
 20 21  1  0
 21 22  1  0
 22 23  1  0
 23 24  1  0
 24 25  1  0
 25 26  1  0
 26 27  1  0
 27 28  1  0
 28 29  1  0
 29 30  1  0
 30 31  1  0
 31 32  1  0
 32 33  1  0
 33 34  1  0
 34 35  1  0
 35 36  1  0
 36 37  1  0
 37 38  1  0
 38 39  1  0
 39 40  1  0
  9 41  1  0
 41 42  2  0
 42  6  1  0
M  END
> <Identifier>
7699.0

> <DILI>
0

$$$$

     RDKit          2D

 25 28  0  0  0  0  0  0  0  0999 V2000
   -7.8603    0.2603    0.0000 C   0  0  0  0  0  0  0  0  0  0  0  0
   -6.4901    0.8707    0.0000 C   0  0  0  0  0  0  0  0  0  0  0  0
   -5.2764   -0.0107    0.0000 C   0  0  0  0  0  0  0  0  0  0  0  0
   -5.4328   -1.5026    0.0000 C   0  0  0  0  0  0  0  0  0  0  0  0
   -6.8030   -2.1130    0.0000 O   0  0  0  0  0  0  0  0  0  0  0  0
   -3.9062    0.5996    0.0000 N   0  0  0  0  0  0  0  0  0  0  0  0
   -2.6925   -0.2818    0.0000 C   0  0  0  0  0  0  0  0  0  0  0  0
   -2.8489   -1.7736    0.0000 O   0  0  0  0  0  0  0  0  0  0  0  0
   -1.3223    0.3286    0.0000 C   0  0  0  0  0  0  0  0  0  0  0  0
   -0.1086   -0.5528    0.0000 C   0  0  0  0  0  0  0  0  0  0  0  0
    1.2616    0.0576    0.0000 C   0  0  0  0  0  0  0  0  0  0  0  0
    2.4753   -0.8239    0.0000 C   0  0  0  0  0  0  0  0  0  0  0  0
    2.3189   -2.3157    0.0000 C   0  0  0  0  0  0  0  0  0  0  0  0
    3.5326   -3.1971    0.0000 C   0  0  0  0  0  0  0  0  0  0  0  0
    4.9028   -2.5867    0.0000 C   0  0  0  0  0  0  0  0  0  0  0  0
    5.0592   -1.0949    0.0000 C   0  0  0  0  0  0  0  0  0  0  0  0
    6.1737   -0.0910    0.0000 N   0  0  0  0  0  0  0  0  0  0  0  0
    5.5634    1.2792    0.0000 C   0  0  0  0  0  0  0  0  0  0  0  0
    4.0020    1.2783    0.0000 C   0  0  0  0  0  0  0  0  0  0  0  0
    3.8455   -0.2135    0.0000 C   0  0  0  0  0  0  0  0  0  0  0  0
    2.7883    2.1598    0.0000 C   0  0  0  0  0  0  0  0  0  0  0  0
    1.4181    1.5494    0.0000 C   0  0  0  0  0  0  0  0  0  0  0  0
    0.2044    2.4308    0.0000 N   0  0  0  0  0  0  0  0  0  0  0  0
    0.3609    3.9226    0.0000 C   0  0  0  0  0  0  0  0  0  0  0  0
   -1.1658    1.8204    0.0000 C   0  0  0  0  0  0  0  0  0  0  0  0
  1  2  1  0
  2  3  1  0
  3  4  1  0
  4  5  1  0
  3  6  1  0
  6  7  1  0
  7  8  2  0
  7  9  1  0
  9 10  1  0
 10 11  2  0
 11 12  1  0
 12 13  2  0
 13 14  1  0
 14 15  2  0
 15 16  1  0
 16 17  1  0
 17 18  1  0
 18 19  2  0
 19 20  1  0
 19 21  1  0
 21 22  1  0
 22 23  1  0
 23 24  1  0
 23 25  1  0
 25  9  1  0
 22 11  1  0
 20 12  1  0
 20 16  2  0
M  END
> <Identifier>
8226.0

> <DILI>
0

$$$$

     RDKit          2D

 19 21  0  0  0  0  0  0  0  0999 V2000
    3.5419    2.4767    0.0000 O   0  0  0  0  0  0  0  0  0  0  0  0
    2.0419    2.4702    0.0000 C   0  0  0  0  0  0  0  0  0  0  0  0
    1.2863    3.7660    0.0000 O   0  0  0  0  0  0  0  0  0  0  0  0
    1.2976    1.1679    0.0000 C   0  0  0  0  0  0  0  0  0  0  0  0
   -0.2024    1.1614    0.0000 C   0  0  0  0  0  0  0  0  0  0  0  0
   -0.9468   -0.1408    0.0000 C   0  0  0  0  0  0  0  0  0  0  0  0
   -2.4468   -0.1473    0.0000 C   0  0  0  0  0  0  0  0  0  0  0  0
   -3.2024    1.1484    0.0000 C   0  0  0  0  0  0  0  0  0  0  0  0
   -4.7024    1.1419    0.0000 C   0  0  0  0  0  0  0  0  0  0  0  0
   -5.4467   -0.1604    0.0000 C   0  0  0  0  0  0  0  0  0  0  0  0
   -4.6911   -1.4561    0.0000 C   0  0  0  0  0  0  0  0  0  0  0  0
   -3.1911   -1.4496    0.0000 C   0  0  0  0  0  0  0  0  0  0  0  0
   -0.1911   -1.4366    0.0000 N   0  0  0  0  0  0  0  0  0  0  0  0
    1.3088   -1.4301    0.0000 C   0  0  0  0  0  0  0  0  0  0  0  0
    2.0645   -2.7259    0.0000 C   0  0  0  0  0  0  0  0  0  0  0  0
    3.5645   -2.7194    0.0000 C   0  0  0  0  0  0  0  0  0  0  0  0
    4.3088   -1.4171    0.0000 C   0  0  0  0  0  0  0  0  0  0  0  0
    3.5532   -0.1213    0.0000 C   0  0  0  0  0  0  0  0  0  0  0  0
    2.0532   -0.1278    0.0000 C   0  0  0  0  0  0  0  0  0  0  0  0
  1  2  2  0
  2  3  1  0
  2  4  1  0
  4  5  2  0
  5  6  1  0
  6  7  1  0
  7  8  2  0
  8  9  1  0
  9 10  2  0
 10 11  1  0
 11 12  2  0
  6 13  2  0
 13 14  1  0
 14 15  2  0
 15 16  1  0
 16 17  2  0
 17 18  1  0
 18 19  2  0
 19  4  1  0
 12  7  1  0
 19 14  1  0
M  END
> <Identifier>
8593.0

> <DILI>
1

$$$$

     RDKit          2D

 26 28  0  0  0  0  0  0  0  0999 V2000
    4.6158   -4.7132    0.0000 C   0  0  0  0  0  0  0  0  0  0  0  0
    4.6869   -3.2149    0.0000 C   0  0  0  0  0  0  0  0  0  0  0  0
    3.4249   -2.4042    0.0000 O   0  0  0  0  0  0  0  0  0  0  0  0
    3.4960   -0.9059    0.0000 C   0  0  0  0  0  0  0  0  0  0  0  0
    4.8291   -0.2183    0.0000 O   0  0  0  0  0  0  0  0  0  0  0  0
    2.2339   -0.0951    0.0000 C   0  0  0  0  0  0  0  0  0  0  0  0
    3.2515    1.0069    0.0000 C   0  0  0  0  0  0  0  0  0  0  0  0
    4.7147    0.6768    0.0000 C   0  0  0  0  0  0  0  0  0  0  0  0
    5.7323    1.7788    0.0000 C   0  0  0  0  0  0  0  0  0  0  0  0
    5.2866    3.2111    0.0000 C   0  0  0  0  0  0  0  0  0  0  0  0
    3.8234    3.5413    0.0000 C   0  0  0  0  0  0  0  0  0  0  0  0
    2.8058    2.4392    0.0000 C   0  0  0  0  0  0  0  0  0  0  0  0
    1.3253    1.0983    0.0000 C   0  0  0  0  0  0  0  0  0  0  0  0
   -0.1626    0.9082    0.0000 C   0  0  0  0  0  0  0  0  0  0  0  0
   -0.7419   -0.4755    0.0000 N   0  0  0  0  0  0  0  0  0  0  0  0
   -2.2298   -0.6657    0.0000 C   0  0  0  0  0  0  0  0  0  0  0  0
   -3.1384    0.5278    0.0000 C   0  0  0  0  0  0  0  0  0  0  0  0
   -4.6263    0.3376    0.0000 C   0  0  0  0  0  0  0  0  0  0  0  0
   -5.5349    1.5311    0.0000 C   0  0  0  0  0  0  0  0  0  0  0  0
   -7.0228    1.3409    0.0000 C   0  0  0  0  0  0  0  0  0  0  0  0
   -7.6021   -0.0427    0.0000 C   0  0  0  0  0  0  0  0  0  0  0  0
   -9.0900   -0.2329    0.0000 N   0  0  0  0  0  0  0  0  0  0  0  0
   -6.6934   -1.2362    0.0000 C   0  0  0  0  0  0  0  0  0  0  0  0
   -5.2055   -1.0460    0.0000 C   0  0  0  0  0  0  0  0  0  0  0  0
    0.1668   -1.6690    0.0000 C   0  0  0  0  0  0  0  0  0  0  0  0
    1.6547   -1.4788    0.0000 C   0  0  0  0  0  0  0  0  0  0  0  0
  1  2  1  0
  2  3  1  0
  3  4  1  0
  4  5  2  0
  4  6  1  0
  6  7  1  0
  7  8  2  0
  8  9  1  0
  9 10  2  0
 10 11  1  0
 11 12  2  0
  6 13  1  0
 13 14  1  0
 14 15  1  0
 15 16  1  0
 16 17  1  0
 17 18  1  0
 18 19  2  0
 19 20  1  0
 20 21  2  0
 21 22  1  0
 21 23  1  0
 23 24  2  0
 15 25  1  0
 25 26  1  0
 26  6  1  0
 12  7  1  0
 24 18  1  0
M  END
> <Identifier>
8944.0

> <DILI>
0

$$$$

     RDKit          2D

 26 28  0  0  0  0  0  0  0  0999 V2000
   -1.1662    4.8367    0.0000 C   0  0  0  0  0  0  0  0  0  0  0  0
   -1.2545    3.3393    0.0000 C   0  0  0  0  0  0  0  0  0  0  0  0
   -2.5954    2.6671    0.0000 O   0  0  0  0  0  0  0  0  0  0  0  0
   -0.0019    2.5141    0.0000 C   0  0  0  0  0  0  0  0  0  0  0  0
   -0.0902    1.0167    0.0000 C   0  0  0  0  0  0  0  0  0  0  0  0
   -1.4311    0.3445    0.0000 C   0  0  0  0  0  0  0  0  0  0  0  0
   -2.6838    1.1697    0.0000 C   0  0  0  0  0  0  0  0  0  0  0  0
   -4.0247    0.4975    0.0000 C   0  0  0  0  0  0  0  0  0  0  0  0
   -4.1130   -0.9999    0.0000 C   0  0  0  0  0  0  0  0  0  0  0  0
   -5.4540   -1.6722    0.0000 N   0  0  0  0  0  4  0  0  0  0  0  0
   -5.5423   -3.1696    0.0000 O   0  0  0  0  0  0  0  0  0  0  0  0
   -6.7066   -0.8470    0.0000 O   0  0  0  0  0  1  0  0  0  0  0  0
   -2.8604   -1.8251    0.0000 C   0  0  0  0  0  0  0  0  0  0  0  0
   -1.5194   -1.1529    0.0000 C   0  0  0  0  0  0  0  0  0  0  0  0
    1.1624    0.1915    0.0000 C   0  0  0  0  0  0  0  0  0  0  0  0
    1.0741   -1.3059    0.0000 C   0  0  0  0  0  0  0  0  0  0  0  0
   -0.2668   -1.9781    0.0000 O   0  0  0  0  0  0  0  0  0  0  0  0
    2.3267   -2.1311    0.0000 O   0  0  0  0  0  0  0  0  0  0  0  0
    3.6677   -1.4589    0.0000 C   0  0  0  0  0  0  0  0  0  0  0  0
    4.9203   -2.2841    0.0000 C   0  0  0  0  0  0  0  0  0  0  0  0
    6.2613   -1.6118    0.0000 C   0  0  0  0  0  0  0  0  0  0  0  0
    6.3496   -0.1144    0.0000 C   0  0  0  0  0  0  0  0  0  0  0  0
    5.0970    0.7107    0.0000 C   0  0  0  0  0  0  0  0  0  0  0  0
    3.7560    0.0385    0.0000 C   0  0  0  0  0  0  0  0  0  0  0  0
    2.5034    0.8637    0.0000 C   0  0  0  0  0  0  0  0  0  0  0  0
    2.5917    2.3611    0.0000 O   0  0  0  0  0  0  0  0  0  0  0  0
  1  2  1  0
  2  3  2  0
  2  4  1  0
  4  5  1  0
  5  6  1  0
  6  7  2  0
  7  8  1  0
  8  9  2  0
  9 10  1  0
 10 11  2  0
 10 12  1  0
  9 13  1  0
 13 14  2  0
  5 15  1  0
 15 16  2  0
 16 17  1  0
 16 18  1  0
 18 19  1  0
 19 20  2  0
 20 21  1  0
 21 22  2  0
 22 23  1  0
 23 24  2  0
 24 25  1  0
 25 26  2  0
 14  6  1  0
 25 15  1  0
 24 19  1  0
M  CHG  2  10   1  12  -1
M  END
> <Identifier>
9052.0

> <DILI>
1

$$$$

     RDKit          2D

 12 12  0  0  0  0  0  0  0  0999 V2000
   -3.0914    2.1226    0.0000 C   0  0  0  0  0  0  0  0  0  0  0  0
   -1.8549    1.2736    0.0000 N   0  0  0  0  0  0  0  0  0  0  0  0
   -1.9719   -0.2219    0.0000 C   0  0  0  0  0  0  0  0  0  0  0  0
   -3.3255   -0.8682    0.0000 C   0  0  0  0  0  0  0  0  0  0  0  0
   -0.7353   -1.0709    0.0000 C   0  0  0  0  0  0  0  0  0  0  0  0
   -0.8523   -2.5663    0.0000 O   0  0  0  0  0  0  0  0  0  0  0  0
    0.6183   -0.4245    0.0000 C   0  0  0  0  0  0  0  0  0  0  0  0
    0.7353    1.0709    0.0000 C   0  0  0  0  0  0  0  0  0  0  0  0
    2.0889    1.7173    0.0000 C   0  0  0  0  0  0  0  0  0  0  0  0
    3.3255    0.8682    0.0000 C   0  0  0  0  0  0  0  0  0  0  0  0
    3.2084   -0.6272    0.0000 C   0  0  0  0  0  0  0  0  0  0  0  0
    1.8549   -1.2736    0.0000 C   0  0  0  0  0  0  0  0  0  0  0  0
  1  2  1  0
  2  3  1  0
  3  4  1  0
  3  5  1  0
  5  6  1  0
  5  7  1  0
  7  8  2  0
  8  9  1  0
  9 10  2  0
 10 11  1  0
 11 12  2  0
 12  7  1  0
M  END
> <Identifier>
9294.0

> <DILI>
0

$$$$

     RDKit          2D

 44 47  0  0  0  0  0  0  0  0999 V2000
  -10.0178   -2.2825    0.0000 C   0  0  0  0  0  0  0  0  0  0  0  0
   -8.5810   -2.7131    0.0000 O   0  0  0  0  0  0  0  0  0  0  0  0
   -7.4896   -1.6841    0.0000 C   0  0  0  0  0  0  0  0  0  0  0  0
   -7.8351   -0.2244    0.0000 C   0  0  0  0  0  0  0  0  0  0  0  0
   -9.2720    0.2062    0.0000 O   0  0  0  0  0  0  0  0  0  0  0  0
   -9.6175    1.6659    0.0000 C   0  0  0  0  0  0  0  0  0  0  0  0
  -11.0543    2.0965    0.0000 N   0  0  0  0  0  0  0  0  0  0  0  0
   -8.5261    2.6949    0.0000 O   0  0  0  0  0  0  0  0  0  0  0  0
   -6.7438    0.8046    0.0000 C   0  0  0  0  0  0  0  0  0  0  0  0
   -7.0893    2.2643    0.0000 O   0  0  0  0  0  0  0  0  0  0  0  0
   -5.3069    0.3740    0.0000 C   0  0  0  0  0  0  0  0  0  0  0  0
   -4.2155    1.4031    0.0000 O   0  0  0  0  0  0  0  0  0  0  0  0
   -2.7787    0.9724    0.0000 C   0  0  0  0  0  0  0  0  0  0  0  0
   -2.4332   -0.4872    0.0000 C   0  0  0  0  0  0  0  0  0  0  0  0
   -0.9963   -0.9178    0.0000 C   0  0  0  0  0  0  0  0  0  0  0  0
    0.0950    0.1112    0.0000 C   0  0  0  0  0  0  0  0  0  0  0  0
    1.5319   -0.3194    0.0000 C   0  0  0  0  0  0  0  0  0  0  0  0
    1.8774   -1.7791    0.0000 O   0  0  0  0  0  0  0  0  0  0  0  0
    2.6233    0.7096    0.0000 C   0  0  0  0  0  0  0  0  0  0  0  0
    4.0601    0.2790    0.0000 N   0  0  0  0  0  0  0  0  0  0  0  0
    4.4056   -1.1807    0.0000 C   0  0  0  0  0  0  0  0  0  0  0  0
    3.3143   -2.2097    0.0000 O   0  0  0  0  0  0  0  0  0  0  0  0
    5.8425   -1.6113    0.0000 C   0  0  0  0  0  0  0  0  0  0  0  0
    6.1880   -3.0710    0.0000 C   0  0  0  0  0  0  0  0  0  0  0  0
    7.6248   -3.5016    0.0000 C   0  0  0  0  0  0  0  0  0  0  0  0
    8.7162   -2.4725    0.0000 C   0  0  0  0  0  0  0  0  0  0  0  0
   10.1531   -2.9031    0.0000 O   0  0  0  0  0  0  0  0  0  0  0  0
    8.3707   -1.0129    0.0000 C   0  0  0  0  0  0  0  0  0  0  0  0
    9.4621    0.0162    0.0000 C   0  0  0  0  0  0  0  0  0  0  0  0
    9.1166    1.4759    0.0000 C   0  0  0  0  0  0  0  0  0  0  0  0
   10.2079    2.5049    0.0000 C   0  0  0  0  0  0  0  0  0  0  0  0
    9.8624    3.9646    0.0000 C   0  0  0  0  0  0  0  0  0  0  0  0
   11.6448    2.0743    0.0000 C   0  0  0  0  0  0  0  0  0  0  0  0
    6.9338   -0.5822    0.0000 C   0  0  0  0  0  0  0  0  0  0  0  0
    2.2778    2.1693    0.0000 C   0  0  0  0  0  0  0  0  0  0  0  0
    3.3691    3.1983    0.0000 O   0  0  0  0  0  0  0  0  0  0  0  0
    0.8409    2.5999    0.0000 O   0  0  0  0  0  0  0  0  0  0  0  0
   -0.2505    1.5709    0.0000 C   0  0  0  0  0  0  0  0  0  0  0  0
   -1.6873    2.0015    0.0000 C   0  0  0  0  0  0  0  0  0  0  0  0
   -2.0328    3.4612    0.0000 C   0  0  0  0  0  0  0  0  0  0  0  0
   -4.9614   -1.0856    0.0000 O   0  0  0  0  0  0  0  0  0  0  0  0
   -6.0528   -2.1147    0.0000 C   0  0  0  0  0  0  0  0  0  0  0  0
   -4.8498   -3.0108    0.0000 C   0  0  0  0  0  0  0  0  0  0  0  0
   -6.7263   -3.4549    0.0000 C   0  0  0  0  0  0  0  0  0  0  0  0
  1  2  1  0
  2  3  1  0
  3  4  1  0
  4  5  1  0
  5  6  1  0
  6  7  1  0
  6  8  2  0
  4  9  1  0
  9 10  1  0
  9 11  1  0
 11 12  1  0
 12 13  1  0
 13 14  2  0
 14 15  1  0
 15 16  2  0
 16 17  1  0
 17 18  2  0
 17 19  1  0
 19 20  1  0
 20 21  1  0
 21 22  2  0
 21 23  1  0
 23 24  2  0
 24 25  1  0
 25 26  2  0
 26 27  1  0
 26 28  1  0
 28 29  1  0
 29 30  1  0
 30 31  2  0
 31 32  1  0
 31 33  1  0
 28 34  2  0
 19 35  2  0
 35 36  1  0
 35 37  1  0
 37 38  1  0
 38 39  2  0
 39 40  1  0
 11 41  1  0
 41 42  1  0
 42 43  1  0
 42 44  1  0
 42  3  1  0
 39 13  1  0
 38 16  1  0
 34 23  1  0
M  END
> <Identifier>
9346.0

> <DILI>
1

$$$$

     RDKit          2D

 17 18  0  0  0  0  0  0  0  0999 V2000
    5.5837   -0.5153    0.0000 N   0  0  0  0  0  0  0  0  0  0  0  0
    4.0855   -0.4436    0.0000 C   0  0  0  0  0  0  0  0  0  0  0  0
    3.2743   -1.7054    0.0000 N   0  0  0  0  0  0  0  0  0  0  0  0
    1.7760   -1.6337    0.0000 C   0  0  0  0  0  0  0  0  0  0  0  0
    1.0889   -0.3004    0.0000 N   0  0  0  0  0  0  0  0  0  0  0  0
   -0.4094   -0.2287    0.0000 C   0  0  0  0  0  0  0  0  0  0  0  0
   -1.3480   -1.3988    0.0000 O   0  0  0  0  0  0  0  0  0  0  0  0
   -2.7508   -0.8677    0.0000 C   0  0  0  0  0  0  0  0  0  0  0  0
   -4.0051   -1.6904    0.0000 C   0  0  0  0  0  0  0  0  0  0  0  0
   -5.3447   -1.0155    0.0000 O   0  0  0  0  0  0  0  0  0  0  0  0
   -2.6792    0.6306    0.0000 C   0  0  0  0  0  0  0  0  0  0  0  0
   -3.8493    1.5692    0.0000 O   0  0  0  0  0  0  0  0  0  0  0  0
   -1.2321    1.0255    0.0000 C   0  0  0  0  0  0  0  0  0  0  0  0
   -0.7010    2.4283    0.0000 O   0  0  0  0  0  0  0  0  0  0  0  0
    1.9001    0.9614    0.0000 C   0  0  0  0  0  0  0  0  0  0  0  0
    1.2129    2.2947    0.0000 O   0  0  0  0  0  0  0  0  0  0  0  0
    3.3983    0.8897    0.0000 N   0  0  0  0  0  0  0  0  0  0  0  0
  1  2  1  0
  2  3  1  0
  3  4  2  0
  4  5  1  0
  5  6  1  0
  6  7  1  0
  7  8  1  0
  8  9  1  0
  9 10  1  0
  8 11  1  0
 11 12  1  0
 11 13  1  0
 13 14  1  0
  5 15  1  0
 15 16  2  0
 15 17  1  0
 17  2  2  0
 13  6  1  0
M  END
> <Identifier>
9444.0

> <DILI>
1

$$$$

     RDKit          2D

 26 29  0  0  0  0  0  0  0  0999 V2000
   -8.1462    0.2547    0.0000 C   0  0  0  0  0  0  0  0  0  0  0  0
   -6.7763    0.8656    0.0000 C   0  0  0  0  0  0  0  0  0  0  0  0
   -5.5622   -0.0154    0.0000 C   0  0  0  0  0  0  0  0  0  0  0  0
   -5.7181   -1.5073    0.0000 C   0  0  0  0  0  0  0  0  0  0  0  0
   -7.0881   -2.1182    0.0000 O   0  0  0  0  0  0  0  0  0  0  0  0
   -4.1922    0.5955    0.0000 N   0  0  0  0  0  0  0  0  0  0  0  0
   -2.9782   -0.2855    0.0000 C   0  0  0  0  0  0  0  0  0  0  0  0
   -3.1341   -1.7773    0.0000 O   0  0  0  0  0  0  0  0  0  0  0  0
   -1.6082    0.3254    0.0000 C   0  0  0  0  0  0  0  0  0  0  0  0
   -0.3942   -0.5555    0.0000 C   0  0  0  0  0  0  0  0  0  0  0  0
    0.9758    0.0554    0.0000 C   0  0  0  0  0  0  0  0  0  0  0  0
    2.1898   -0.8256    0.0000 C   0  0  0  0  0  0  0  0  0  0  0  0
    2.0339   -2.3175    0.0000 C   0  0  0  0  0  0  0  0  0  0  0  0
    3.2479   -3.1984    0.0000 C   0  0  0  0  0  0  0  0  0  0  0  0
    4.6179   -2.5875    0.0000 C   0  0  0  0  0  0  0  0  0  0  0  0
    4.7738   -1.0956    0.0000 C   0  0  0  0  0  0  0  0  0  0  0  0
    3.5598   -0.2147    0.0000 C   0  0  0  0  0  0  0  0  0  0  0  0
    3.7157    1.2772    0.0000 C   0  0  0  0  0  0  0  0  0  0  0  0
    5.2074    1.4349    0.0000 C   0  0  0  0  0  0  0  0  0  0  0  0
    5.8183    0.0649    0.0000 N   0  0  0  0  0  0  0  0  0  0  0  0
    7.2857   -0.2461    0.0000 C   0  0  0  0  0  0  0  0  0  0  0  0
    2.5016    2.1582    0.0000 C   0  0  0  0  0  0  0  0  0  0  0  0
    1.1317    1.5473    0.0000 C   0  0  0  0  0  0  0  0  0  0  0  0
   -0.0824    2.4282    0.0000 N   0  0  0  0  0  0  0  0  0  0  0  0
    0.0736    3.9201    0.0000 C   0  0  0  0  0  0  0  0  0  0  0  0
   -1.4523    1.8173    0.0000 C   0  0  0  0  0  0  0  0  0  0  0  0
  1  2  1  0
  2  3  1  0
  3  4  1  0
  4  5  1  0
  3  6  1  0
  6  7  1  0
  7  8  2  0
  7  9  1  0
  9 10  1  0
 10 11  2  0
 11 12  1  0
 12 13  2  0
 13 14  1  0
 14 15  2  0
 15 16  1  0
 16 17  2  0
 17 18  1  0
 18 19  2  0
 19 20  1  0
 20 21  1  0
 18 22  1  0
 22 23  1  0
 23 24  1  0
 24 25  1  0
 24 26  1  0
 26  9  1  0
 23 11  1  0
 17 12  1  0
 20 16  1  0
M  END
> <Identifier>
9681.0

> <DILI>
0

$$$$

     RDKit          2D

 24 27  0  0  0  0  0  0  0  0999 V2000
    0.8838    1.2380    0.0000 C   0  0  0  0  0  0  0  0  0  0  0  0
    1.4554   -0.1488    0.0000 C   0  0  0  0  0  0  0  0  0  0  0  0
    2.3706    1.0396    0.0000 C   0  0  0  0  0  0  0  0  0  0  0  0
    3.8574    0.8412    0.0000 C   0  0  0  0  0  0  0  0  0  0  0  0
    4.7726    2.0297    0.0000 C   0  0  0  0  0  0  0  0  0  0  0  0
    6.2595    1.8313    0.0000 O   0  0  0  0  0  0  0  0  0  0  0  0
    4.4290   -0.5456    0.0000 C   0  0  0  0  0  0  0  0  0  0  0  0
    5.9158   -0.7440    0.0000 O   0  0  0  0  0  0  0  0  0  0  0  0
    3.5138   -1.7340    0.0000 C   0  0  0  0  0  0  0  0  0  0  0  0
    2.0270   -1.5356    0.0000 C   0  0  0  0  0  0  0  0  0  0  0  0
    1.1117   -2.7240    0.0000 C   0  0  0  0  0  0  0  0  0  0  0  0
   -0.3751   -2.5256    0.0000 C   0  0  0  0  0  0  0  0  0  0  0  0
   -0.9467   -1.1388    0.0000 C   0  0  0  0  0  0  0  0  0  0  0  0
   -0.0315    0.0496    0.0000 C   0  0  0  0  0  0  0  0  0  0  0  0
   -0.6031    1.4364    0.0000 C   0  0  0  0  0  0  0  0  0  0  0  0
   -2.0899    1.6348    0.0000 C   0  0  0  0  0  0  0  0  0  0  0  0
   -3.0051    0.4464    0.0000 C   0  0  0  0  0  0  0  0  0  0  0  0
   -3.5524    1.8430    0.0000 C   0  0  0  0  0  0  0  0  0  0  0  0
   -2.4335   -0.9404    0.0000 C   0  0  0  0  0  0  0  0  0  0  0  0
   -3.5758   -1.9126    0.0000 C   0  0  0  0  0  0  0  0  0  0  0  0
   -4.8534   -1.1266    0.0000 C   0  0  0  0  0  0  0  0  0  0  0  0
   -4.5007    0.3314    0.0000 C   0  0  0  0  0  0  0  0  0  0  0  0
   -5.9875    0.5297    0.0000 C   0  0  0  0  0  0  0  0  0  0  0  0
   -4.6419    1.8247    0.0000 O   0  0  0  0  0  0  0  0  0  0  0  0
  1  2  1  0
  2  3  1  0
  3  4  1  0
  4  5  2  3
  5  6  1  0
  4  7  1  0
  7  8  2  0
  7  9  1  0
  9 10  1  0
 10 11  1  0
 11 12  1  0
 12 13  1  0
 13 14  1  0
 14 15  1  0
 15 16  1  0
 16 17  1  0
 17 18  1  0
 17 19  1  0
 19 20  1  0
 20 21  1  0
 21 22  1  0
 22 23  1  0
 22 24  1  0
 10  2  1  0
 19 13  1  0
 14  2  1  0
 22 17  1  0
M  END
> <Identifier>
9902.0

> <DILI>
1

$$$$

     RDKit          2D

 20 23  0  0  0  0  0  0  0  0999 V2000
   -3.5888   -1.6651    0.0000 C   0  0  0  0  0  0  0  0  0  0  0  0
   -2.7276   -0.4369    0.0000 C   0  0  0  0  0  0  0  0  0  0  0  0
   -1.9559   -1.7232    0.0000 C   0  0  0  0  0  0  0  0  0  0  0  0
   -0.4561   -1.6979    0.0000 C   0  0  0  0  0  0  0  0  0  0  0  0
    0.2720   -0.3865    0.0000 C   0  0  0  0  0  0  0  0  0  0  0  0
    1.7717   -0.3613    0.0000 C   0  0  0  0  0  0  0  0  0  0  0  0
    2.5435   -1.6475    0.0000 C   0  0  0  0  0  0  0  0  0  0  0  0
    4.0433   -1.6223    0.0000 C   0  0  0  0  0  0  0  0  0  0  0  0
    4.7713   -0.3109    0.0000 C   0  0  0  0  0  0  0  0  0  0  0  0
    6.2711   -0.2857    0.0000 O   0  0  0  0  0  0  0  0  0  0  0  0
    3.9996    0.9754    0.0000 C   0  0  0  0  0  0  0  0  0  0  0  0
    2.4998    0.9502    0.0000 C   0  0  0  0  0  0  0  0  0  0  0  0
    1.7281    2.2364    0.0000 C   0  0  0  0  0  0  0  0  0  0  0  0
    0.2283    2.2112    0.0000 C   0  0  0  0  0  0  0  0  0  0  0  0
   -0.4998    0.8998    0.0000 C   0  0  0  0  0  0  0  0  0  0  0  0
   -1.9996    0.8746    0.0000 C   0  0  0  0  0  0  0  0  0  0  0  0
   -3.0218    1.9722    0.0000 C   0  0  0  0  0  0  0  0  0  0  0  0
   -4.3817    1.3392    0.0000 C   0  0  0  0  0  0  0  0  0  0  0  0
   -4.1999   -0.1497    0.0000 C   0  0  0  0  0  0  0  0  0  0  0  0
   -5.2976   -1.1720    0.0000 O   0  0  0  0  0  0  0  0  0  0  0  0
  1  2  1  0
  2  3  1  0
  3  4  1  0
  4  5  1  0
  5  6  1  0
  6  7  1  0
  7  8  1  0
  8  9  1  0
  9 10  2  0
  9 11  1  0
 11 12  2  0
 12 13  1  0
 13 14  1  0
 14 15  1  0
 15 16  1  0
 16 17  1  0
 17 18  1  0
 18 19  1  0
 19 20  1  0
 16  2  1  0
 19  2  1  0
 15  5  1  0
 12  6  1  0
M  END
> <Identifier>
9904.0

> <DILI>
1

$$$$

     RDKit          2D

 25 28  0  0  0  0  0  0  0  0999 V2000
   -5.9233    1.2548    0.0000 C   0  0  0  0  0  0  0  0  0  0  0  0
   -5.1374   -0.0229    0.0000 C   0  0  0  0  0  0  0  0  0  0  0  0
   -5.8510   -1.3423    0.0000 O   0  0  0  0  0  0  0  0  0  0  0  0
   -3.6380    0.0189    0.0000 C   0  0  0  0  0  0  0  0  0  0  0  0
   -4.0160    1.4705    0.0000 O   0  0  0  0  0  0  0  0  0  0  0  0
   -3.7533   -1.4767    0.0000 C   0  0  0  0  0  0  0  0  0  0  0  0
   -2.3665   -2.0485    0.0000 C   0  0  0  0  0  0  0  0  0  0  0  0
   -1.3942   -0.9063    0.0000 C   0  0  0  0  0  0  0  0  0  0  0  0
    0.1052   -0.8645    0.0000 C   0  0  0  0  0  0  0  0  0  0  0  0
    0.8911   -2.1422    0.0000 C   0  0  0  0  0  0  0  0  0  0  0  0
    2.3905   -2.1005    0.0000 C   0  0  0  0  0  0  0  0  0  0  0  0
    3.1763   -3.3782    0.0000 C   0  0  0  0  0  0  0  0  0  0  0  0
    3.1041   -0.7811    0.0000 C   0  0  0  0  0  0  0  0  0  0  0  0
    4.6035   -0.7394    0.0000 C   0  0  0  0  0  0  0  0  0  0  0  0
    5.3171    0.5800    0.0000 C   0  0  0  0  0  0  0  0  0  0  0  0
    6.8165    0.6217    0.0000 O   0  0  0  0  0  0  0  0  0  0  0  0
    4.5312    1.8577    0.0000 C   0  0  0  0  0  0  0  0  0  0  0  0
    3.0318    1.8160    0.0000 C   0  0  0  0  0  0  0  0  0  0  0  0
    2.3182    0.4966    0.0000 C   0  0  0  0  0  0  0  0  0  0  0  0
    1.5324    1.7742    0.0000 C   0  0  0  0  0  0  0  0  0  0  0  0
    0.8188    0.4548    0.0000 C   0  0  0  0  0  0  0  0  0  0  0  0
    0.0330    1.7325    0.0000 C   0  0  0  0  0  0  0  0  0  0  0  0
   -1.4665    1.6908    0.0000 C   0  0  0  0  0  0  0  0  0  0  0  0
   -2.1800    0.3714    0.0000 C   0  0  0  0  0  0  0  0  0  0  0  0
   -2.9434    1.6626    0.0000 C   0  0  0  0  0  0  0  0  0  0  0  0
  1  2  1  0
  2  3  2  0
  2  4  1  0
  4  5  1  0
  4  6  1  0
  6  7  1  0
  7  8  1  0
  8  9  1  0
  9 10  1  0
 10 11  1  0
 11 12  1  0
 11 13  1  0
 13 14  2  0
 14 15  1  0
 15 16  2  0
 15 17  1  0
 17 18  1  0
 18 19  1  0
 19 20  1  0
 19 21  1  0
 21 22  1  0
 22 23  1  0
 23 24  1  0
 24 25  1  0
 24  4  1  0
 24  8  1  0
 21  9  1  0
 19 13  1  0
M  END
> <Identifier>
10631.0

> <DILI>
0

$$$$

     RDKit          2D

 11 11  0  0  0  0  0  0  0  0999 V2000
   -3.2664    1.7154    0.0000 C   0  0  0  0  0  0  0  0  0  0  0  0
   -1.9857    0.9344    0.0000 N   0  0  0  0  0  0  0  0  0  0  0  0
   -2.0218   -0.5652    0.0000 C   0  0  0  0  0  0  0  0  0  0  0  0
   -3.3385   -1.2838    0.0000 C   0  0  0  0  0  0  0  0  0  0  0  0
   -0.7411   -1.3462    0.0000 C   0  0  0  0  0  0  0  0  0  0  0  0
    0.5756   -0.6277    0.0000 C   0  0  0  0  0  0  0  0  0  0  0  0
    0.6116    0.8719    0.0000 C   0  0  0  0  0  0  0  0  0  0  0  0
    1.9283    1.5905    0.0000 C   0  0  0  0  0  0  0  0  0  0  0  0
    3.2089    0.8095    0.0000 C   0  0  0  0  0  0  0  0  0  0  0  0
    3.1729   -0.6901    0.0000 C   0  0  0  0  0  0  0  0  0  0  0  0
    1.8562   -1.4087    0.0000 C   0  0  0  0  0  0  0  0  0  0  0  0
  1  2  1  0
  2  3  1  0
  3  4  1  0
  3  5  1  0
  5  6  1  0
  6  7  2  0
  7  8  1  0
  8  9  2  0
  9 10  1  0
 10 11  2  0
 11  6  1  0
M  END
> <Identifier>
10836.0

> <DILI>
0

$$$$

     RDKit          2D

 11 10  0  0  0  0  0  0  0  0999 V2000
   -3.1206    1.4164    0.0000 C   0  0  0  0  0  0  0  0  0  0  0  0
   -2.3627    0.1220    0.0000 N   0  0  0  0  0  4  0  0  0  0  0  0
   -1.6048   -1.1725    0.0000 C   0  0  0  0  0  0  0  0  0  0  0  0
   -3.6571   -0.6360    0.0000 C   0  0  0  0  0  0  0  0  0  0  0  0
   -1.0682    0.8799    0.0000 C   0  0  0  0  0  0  0  0  0  0  0  0
    0.2354    0.1378    0.0000 C   0  0  0  0  0  0  0  0  0  0  0  0
    0.2445   -1.3622    0.0000 O   0  0  0  0  0  0  0  0  0  0  0  0
    1.5298    0.8957    0.0000 C   0  0  0  0  0  0  0  0  0  0  0  0
    2.8334    0.1536    0.0000 C   0  0  0  0  0  0  0  0  0  0  0  0
    2.8425   -1.3463    0.0000 O   0  0  0  0  0  0  0  0  0  0  0  0
    4.1278    0.9116    0.0000 O   0  0  0  0  0  1  0  0  0  0  0  0
  1  2  1  0
  2  3  1  0
  2  4  1  0
  2  5  1  0
  5  6  1  0
  6  7  1  0
  6  8  1  0
  8  9  1  0
  9 10  2  0
  9 11  1  0
M  CHG  2   2   1  11  -1
M  END
> <Identifier>
10917.0

> <DILI>
0

$$$$

     RDKit          2D

 14 14  0  0  0  0  0  0  0  0999 V2000
    4.9099   -0.0149    0.0000 N   0  0  0  0  0  0  0  0  0  0  0  0
    3.4378    0.2730    0.0000 C   0  0  0  0  0  0  0  0  0  0  0  0
    2.9511    1.6919    0.0000 O   0  0  0  0  0  0  0  0  0  0  0  0
    2.4524   -0.8579    0.0000 N   0  0  0  0  0  0  0  0  0  0  0  0
    0.9803   -0.5699    0.0000 S   0  0  0  0  0  0  0  0  0  0  0  0
    0.6923   -2.0420    0.0000 O   0  0  0  0  0  0  0  0  0  0  0  0
    1.2682    0.9022    0.0000 O   0  0  0  0  0  0  0  0  0  0  0  0
   -0.4918   -0.2820    0.0000 C   0  0  0  0  0  0  0  0  0  0  0  0
   -1.4773   -1.4129    0.0000 C   0  0  0  0  0  0  0  0  0  0  0  0
   -2.9494   -1.1249    0.0000 C   0  0  0  0  0  0  0  0  0  0  0  0
   -3.4361    0.2939    0.0000 C   0  0  0  0  0  0  0  0  0  0  0  0
   -4.9082    0.5819    0.0000 N   0  0  0  0  0  0  0  0  0  0  0  0
   -2.4506    1.4248    0.0000 C   0  0  0  0  0  0  0  0  0  0  0  0
   -0.9785    1.1369    0.0000 C   0  0  0  0  0  0  0  0  0  0  0  0
  1  2  1  0
  2  3  2  0
  2  4  1  0
  4  5  1  0
  5  6  2  0
  5  7  2  0
  5  8  1  0
  8  9  2  0
  9 10  1  0
 10 11  2  0
 11 12  1  0
 11 13  1  0
 13 14  2  0
 14  8  1  0
M  END
> <Identifier>
11033.0

> <DILI>
1

$$$$

     RDKit          2D

 13 14  0  0  0  0  0  0  0  0999 V2000
   -4.8739    0.5739    0.0000 S   0  0  0  0  0  0  0  0  0  0  0  0
   -3.4018    0.8619    0.0000 C   0  0  0  0  0  0  0  0  0  0  0  0
   -1.9297    1.1498    0.0000 N   0  0  0  0  0  0  0  0  0  0  0  0
   -0.9443    0.0189    0.0000 C   0  0  0  0  0  0  0  0  0  0  0  0
   -1.4310   -1.3999    0.0000 C   0  0  0  0  0  0  0  0  0  0  0  0
   -0.4455   -2.5308    0.0000 C   0  0  0  0  0  0  0  0  0  0  0  0
    1.0266   -2.2429    0.0000 C   0  0  0  0  0  0  0  0  0  0  0  0
    1.5133   -0.8240    0.0000 C   0  0  0  0  0  0  0  0  0  0  0  0
    2.9854   -0.5361    0.0000 C   0  0  0  0  0  0  0  0  0  0  0  0
    3.4720    0.8828    0.0000 C   0  0  0  0  0  0  0  0  0  0  0  0
    2.4866    2.0137    0.0000 C   0  0  0  0  0  0  0  0  0  0  0  0
    1.0145    1.7257    0.0000 C   0  0  0  0  0  0  0  0  0  0  0  0
    0.5278    0.3069    0.0000 C   0  0  0  0  0  0  0  0  0  0  0  0
  1  2  2  0
  2  3  2  0
  3  4  1  0
  4  5  2  0
  5  6  1  0
  6  7  2  0
  7  8  1  0
  8  9  2  0
  9 10  1  0
 10 11  2  0
 11 12  1  0
 12 13  2  0
 13  4  1  0
 13  8  1  0
M  END
> <Identifier>
11080.0

> <DILI>
1

$$$$

     RDKit          2D

 23 24  0  0  0  0  0  0  0  0999 V2000
    1.5783   -3.4907    0.0000 O   0  0  0  0  0  0  0  0  0  0  0  0
    2.8076   -2.6311    0.0000 C   0  0  0  0  0  0  0  0  0  0  0  0
    2.6778   -1.1367    0.0000 C   0  0  0  0  0  0  0  0  0  0  0  0
    1.3187   -0.5020    0.0000 O   0  0  0  0  0  0  0  0  0  0  0  0
    1.1889    0.9924    0.0000 C   0  0  0  0  0  0  0  0  0  0  0  0
   -0.1701    1.6272    0.0000 O   0  0  0  0  0  0  0  0  0  0  0  0
   -1.3994    0.7676    0.0000 C   0  0  0  0  0  0  0  0  0  0  0  0
   -1.4265   -0.7322    0.0000 C   0  0  0  0  0  0  0  0  0  0  0  0
   -0.2291   -1.6357    0.0000 C   0  0  0  0  0  0  0  0  0  0  0  0
   -0.4129   -3.1244    0.0000 O   0  0  0  0  0  0  0  0  0  0  0  0
   -2.8612   -1.1699    0.0000 O   0  0  0  0  0  0  0  0  0  0  0  0
   -3.7209    0.0594    0.0000 C   0  0  0  0  0  0  0  0  0  0  0  0
   -4.8172    1.0831    0.0000 O   0  0  0  0  0  0  0  0  0  0  0  0
   -4.8535   -0.9240    0.0000 C   0  0  0  0  0  0  0  0  0  0  0  0
   -6.2715   -0.4348    0.0000 O   0  0  0  0  0  0  0  0  0  0  0  0
   -2.8174    1.2568    0.0000 C   0  0  0  0  0  0  0  0  0  0  0  0
   -3.2551    2.6915    0.0000 O   0  0  0  0  0  0  0  0  0  0  0  0
    2.4182    1.8520    0.0000 C   0  0  0  0  0  0  0  0  0  0  0  0
    2.2884    3.3464    0.0000 O   0  0  0  0  0  0  0  0  0  0  0  0
    3.7772    1.2172    0.0000 C   0  0  0  0  0  0  0  0  0  0  0  0
    5.0065    2.0768    0.0000 O   0  0  0  0  0  0  0  0  0  0  0  0
    3.9071   -0.2771    0.0000 C   0  0  0  0  0  0  0  0  0  0  0  0
    5.2661   -0.9119    0.0000 O   0  0  0  0  0  0  0  0  0  0  0  0
  1  2  1  0
  2  3  1  0
  3  4  1  0
  4  5  1  0
  5  6  1  0
  6  7  1  0
  7  8  1  0
  8  9  1  0
  9 10  1  0
  8 11  1  0
 11 12  1  0
 12 13  1  0
 12 14  1  0
 14 15  1  0
 12 16  1  0
 16 17  1  0
  5 18  1  0
 18 19  1  0
 18 20  1  0
 20 21  1  0
 20 22  1  0
 22 23  1  0
 22  3  1  0
 16  7  1  0
M  END
> <Identifier>
11333.0

> <DILI>
0

$$$$

     RDKit          2D

 20 20  0  0  0  0  0  0  0  0999 V2000
    1.1830    6.5981    0.0000 C   0  0  0  0  0  0  0  0  0  0  0  0
    0.4330    5.2990    0.0000 C   0  0  0  0  0  0  0  0  0  0  0  0
   -0.3170    4.0000    0.0000 C   0  0  0  0  0  0  0  0  0  0  0  0
    1.7321    4.5490    0.0000 N   0  0  0  0  0  0  0  0  0  0  0  0
   -0.8660    6.0490    0.0000 C   0  0  0  0  0  0  0  0  0  0  0  0
   -2.1651    5.2990    0.0000 O   0  0  0  0  0  0  0  0  0  0  0  0
    3.2388   -1.5000    0.0000 C   0  0  0  0  0  0  0  0  0  0  0  0
    1.9397   -0.7500    0.0000 N   0  0  0  0  0  0  0  0  0  0  0  0
    0.6407   -1.5000    0.0000 C   0  0  0  0  0  0  0  0  0  0  0  0
    0.6407   -3.0000    0.0000 O   0  0  0  0  0  0  0  0  0  0  0  0
   -0.6583   -0.7500    0.0000 C   0  0  0  0  0  0  0  0  0  0  0  0
   -2.0849   -1.2135    0.0000 N   0  0  0  0  0  0  0  0  0  0  0  0
   -2.9666    0.0000    0.0000 C   0  0  0  0  0  0  0  0  0  0  0  0
   -4.4666    0.0000    0.0000 Br  0  0  0  0  0  0  0  0  0  0  0  0
   -2.0849    1.2135    0.0000 N   0  0  0  0  0  0  0  0  0  0  0  0
   -0.6583    0.7500    0.0000 C   0  0  0  0  0  0  0  0  0  0  0  0
    0.6407    1.5000    0.0000 N   0  0  0  0  0  0  0  0  0  0  0  0
    0.6407    3.0000    0.0000 C   0  0  0  0  0  0  0  0  0  0  0  0
    1.9397    0.7500    0.0000 C   0  0  0  0  0  0  0  0  0  0  0  0
    3.2388    1.5000    0.0000 O   0  0  0  0  0  0  0  0  0  0  0  0
  1  2  1  0
  2  3  1  0
  2  4  1  0
  2  5  1  0
  5  6  1  0
  7  8  1  0
  8  9  1  0
  9 10  2  0
  9 11  1  0
 11 12  1  0
 12 13  1  0
 13 14  1  0
 13 15  2  0
 15 16  1  0
 16 17  1  0
 17 18  1  0
 17 19  1  0
 19 20  2  0
 19  8  1  0
 16 11  2  0
M  END
> <Identifier>
11806.0

> <DILI>
0

$$$$

     RDKit          2D

 11 11  0  0  0  0  0  0  0  0999 V2000
   -4.0647   -0.8891    0.0000 C   0  0  0  0  0  0  0  0  0  0  0  0
   -2.7298   -0.2049    0.0000 C   0  0  0  0  0  0  0  0  0  0  0  0
   -2.6549    1.2932    0.0000 O   0  0  0  0  0  0  0  0  0  0  0  0
   -1.4698   -1.0188    0.0000 N   0  0  0  0  0  0  0  0  0  0  0  0
   -0.1350   -0.3346    0.0000 C   0  0  0  0  0  0  0  0  0  0  0  0
   -0.0601    1.1635    0.0000 C   0  0  0  0  0  0  0  0  0  0  0  0
    1.2748    1.8478    0.0000 C   0  0  0  0  0  0  0  0  0  0  0  0
    2.5347    1.0339    0.0000 C   0  0  0  0  0  0  0  0  0  0  0  0
    2.4599   -0.4643    0.0000 C   0  0  0  0  0  0  0  0  0  0  0  0
    3.7199   -1.2782    0.0000 O   0  0  0  0  0  0  0  0  0  0  0  0
    1.1250   -1.1485    0.0000 C   0  0  0  0  0  0  0  0  0  0  0  0
  1  2  1  0
  2  3  2  0
  2  4  1  0
  4  5  1  0
  5  6  2  0
  6  7  1  0
  7  8  2  0
  8  9  1  0
  9 10  1  0
  9 11  2  0
 11  5  1  0
M  END
> <Identifier>
12124.0

> <DILI>
0

$$$$

     RDKit          2D

 14 15  0  0  0  0  0  0  0  0999 V2000
    0.7683   -2.1337    0.0000 C   0  0  0  0  0  0  0  0  0  0  0  0
    1.3080   -0.7342    0.0000 C   0  0  0  0  0  0  0  0  0  0  0  0
    0.3659    0.4330    0.0000 C   0  0  0  0  0  0  0  0  0  0  0  0
   -1.1160    0.2007    0.0000 C   0  0  0  0  0  0  0  0  0  0  0  0
   -2.0581    1.3680    0.0000 C   0  0  0  0  0  0  0  0  0  0  0  0
   -3.5400    1.1357    0.0000 C   0  0  0  0  0  0  0  0  0  0  0  0
   -4.0798   -0.2638    0.0000 C   0  0  0  0  0  0  0  0  0  0  0  0
   -3.1377   -1.4311    0.0000 C   0  0  0  0  0  0  0  0  0  0  0  0
   -1.6558   -1.1988    0.0000 C   0  0  0  0  0  0  0  0  0  0  0  0
    0.9057    1.8326    0.0000 O   0  0  0  0  0  0  0  0  0  0  0  0
    2.3876    2.0649    0.0000 C   0  0  0  0  0  0  0  0  0  0  0  0
    3.3297    0.8976    0.0000 C   0  0  0  0  0  0  0  0  0  0  0  0
    2.7900   -0.5019    0.0000 N   0  0  0  0  0  0  0  0  0  0  0  0
    3.7321   -1.6691    0.0000 C   0  0  0  0  0  0  0  0  0  0  0  0
  1  2  1  0
  2  3  1  0
  3  4  1  0
  4  5  2  0
  5  6  1  0
  6  7  2  0
  7  8  1  0
  8  9  2  0
  3 10  1  0
 10 11  1  0
 11 12  1  0
 12 13  1  0
 13 14  1  0
 13  2  1  0
  9  4  1  0
M  END
> <Identifier>
12460.0

> <DILI>
0

$$$$

     RDKit          2D

 51 53  0  0  0  0  0  0  0  0999 V2000
   -5.5736   -4.0840    0.0000 C   0  0  0  0  0  0  0  0  0  0  0  0
   -4.2511   -4.7919    0.0000 C   0  0  0  0  0  0  0  0  0  0  0  0
   -2.9768   -4.0005    0.0000 C   0  0  0  0  0  0  0  0  0  0  0  0
   -3.4648   -2.5821    0.0000 O   0  0  0  0  0  0  0  0  0  0  0  0
   -3.2891   -1.0924    0.0000 C   0  0  0  0  0  0  0  0  0  0  0  0
   -4.7023   -0.5896    0.0000 O   0  0  0  0  0  0  0  0  0  0  0  0
   -2.4844    0.1735    0.0000 C   0  0  0  0  0  0  0  0  0  0  0  0
   -3.6379    0.8748    0.0000 C   0  0  0  0  0  0  0  0  0  0  0  0
   -1.2101    0.9649    0.0000 C   0  0  0  0  0  0  0  0  0  0  0  0
   -1.6981    2.3833    0.0000 O   0  0  0  0  0  0  0  0  0  0  0  0
   -3.1705    2.6699    0.0000 C   0  0  0  0  0  0  0  0  0  0  0  0
   -3.6585    4.0883    0.0000 C   0  0  0  0  0  0  0  0  0  0  0  0
   -5.1308    4.3748    0.0000 C   0  0  0  0  0  0  0  0  0  0  0  0
   -6.4164    5.1477    0.0000 C   0  0  0  0  0  0  0  0  0  0  0  0
   -4.5929    5.7751    0.0000 O   0  0  0  0  0  0  0  0  0  0  0  0
   -5.5366    6.9410    0.0000 C   0  0  0  0  0  0  0  0  0  0  0  0
   -6.1152    3.2430    0.0000 C   0  0  0  0  0  0  0  0  0  0  0  0
   -7.5876    3.5296    0.0000 O   0  0  0  0  0  0  0  0  0  0  0  0
   -5.6272    1.8246    0.0000 C   0  0  0  0  0  0  0  0  0  0  0  0
   -6.6116    0.6928    0.0000 C   0  0  0  0  0  0  0  0  0  0  0  0
   -4.1549    1.5380    0.0000 O   0  0  0  0  0  0  0  0  0  0  0  0
    0.2813    1.1250    0.0000 C   0  0  0  0  0  0  0  0  0  0  0  0
    0.4571    2.6147    0.0000 C   0  0  0  0  0  0  0  0  0  0  0  0
    1.6945    0.6222    0.0000 C   0  0  0  0  0  0  0  0  0  0  0  0
    2.4992    1.8880    0.0000 O   0  0  0  0  0  0  0  0  0  0  0  0
    3.9978    1.8241    0.0000 C   0  0  0  0  0  0  0  0  0  0  0  0
    4.6918    0.4943    0.0000 O   0  0  0  0  0  0  0  0  0  0  0  0
    6.1904    0.4303    0.0000 C   0  0  0  0  0  0  0  0  0  0  0  0
    6.8844   -0.8995    0.0000 C   0  0  0  0  0  0  0  0  0  0  0  0
    6.9951    1.6962    0.0000 C   0  0  0  0  0  0  0  0  0  0  0  0
    6.3012    3.0261    0.0000 C   0  0  0  0  0  0  0  0  0  0  0  0
    7.1059    4.2919    0.0000 N   0  0  0  0  0  0  0  0  0  0  0  0
    8.6045    4.2280    0.0000 C   0  0  0  0  0  0  0  0  0  0  0  0
    6.4119    5.6218    0.0000 C   0  0  0  0  0  0  0  0  0  0  0  0
    4.8025    3.0900    0.0000 C   0  0  0  0  0  0  0  0  0  0  0  0
    4.1086    4.4198    0.0000 O   0  0  0  0  0  0  0  0  0  0  0  0
    2.7496   -0.4440    0.0000 C   0  0  0  0  0  0  0  0  0  0  0  0
    3.3566    0.9276    0.0000 C   0  0  0  0  0  0  0  0  0  0  0  0
    4.2482   -0.5080    0.0000 O   0  0  0  0  0  0  0  0  0  0  0  0
    3.2376   -1.8624    0.0000 C   0  0  0  0  0  0  0  0  0  0  0  0
    3.0618   -3.3521    0.0000 C   0  0  0  0  0  0  0  0  0  0  0  0
    4.4750   -3.8549    0.0000 C   0  0  0  0  0  0  0  0  0  0  0  0
    2.2571   -4.6180    0.0000 C   0  0  0  0  0  0  0  0  0  0  0  0
    3.3122   -5.6842    0.0000 O   0  0  0  0  0  0  0  0  0  0  0  0
    0.9829   -5.4094    0.0000 C   0  0  0  0  0  0  0  0  0  0  0  0
    1.4709   -6.8278    0.0000 C   0  0  0  0  0  0  0  0  0  0  0  0
   -0.5085   -5.5695    0.0000 C   0  0  0  0  0  0  0  0  0  0  0  0
   -0.6843   -7.0592    0.0000 O   0  0  0  0  0  0  0  0  0  0  0  0
   -1.9217   -5.0667    0.0000 C   0  0  0  0  0  0  0  0  0  0  0  0
   -1.8735   -6.5659    0.0000 C   0  0  0  0  0  0  0  0  0  0  0  0
   -3.2997   -5.6593    0.0000 O   0  0  0  0  0  0  0  0  0  0  0  0
  1  2  1  0
  2  3  1  0
  3  4  1  0
  4  5  1  0
  5  6  2  0
  5  7  1  0
  7  8  1  0
  7  9  1  0
  9 10  1  0
 10 11  1  0
 11 12  1  0
 12 13  1  0
 13 14  1  0
 13 15  1  0
 15 16  1  0
 13 17  1  0
 17 18  1  0
 17 19  1  0
 19 20  1  0
 19 21  1  0
  9 22  1  0
 22 23  1  0
 22 24  1  0
 24 25  1  0
 25 26  1  0
 26 27  1  0
 27 28  1  0
 28 29  1  0
 28 30  1  0
 30 31  1  0
 31 32  1  0
 32 33  1  0
 32 34  1  0
 31 35  1  0
 35 36  1  0
 24 37  1  0
 37 38  1  0
 37 39  1  0
 37 40  1  0
 40 41  1  0
 41 42  1  0
 41 43  1  0
 43 44  2  0
 43 45  1  0
 45 46  1  0
 45 47  1  0
 47 48  1  0
 47 49  1  0
 49 50  1  0
 49 51  1  0
 49  3  1  0
 21 11  1  0
 35 26  1  0
M  END
> <Identifier>
12560.0

> <DILI>
1

$$$$

     RDKit          2D

 23 26  0  0  0  0  0  0  0  0999 V2000
   -6.5327   -0.2277    0.0000 C   0  0  0  0  0  0  0  0  0  0  0  0
   -5.0331   -0.1926    0.0000 C   0  0  0  0  0  0  0  0  0  0  0  0
   -3.5335   -0.1575    0.0000 C   0  0  0  0  0  0  0  0  0  0  0  0
   -4.0795    1.2396    0.0000 O   0  0  0  0  0  0  0  0  0  0  0  0
   -3.6553   -1.6525    0.0000 C   0  0  0  0  0  0  0  0  0  0  0  0
   -2.2711   -2.2304    0.0000 C   0  0  0  0  0  0  0  0  0  0  0  0
   -1.2938   -1.0925    0.0000 C   0  0  0  0  0  0  0  0  0  0  0  0
    0.2058   -1.0574    0.0000 C   0  0  0  0  0  0  0  0  0  0  0  0
    0.9860   -2.3385    0.0000 C   0  0  0  0  0  0  0  0  0  0  0  0
    2.4856   -2.3034    0.0000 C   0  0  0  0  0  0  0  0  0  0  0  0
    3.2050   -0.9871    0.0000 C   0  0  0  0  0  0  0  0  0  0  0  0
    4.7046   -0.9520    0.0000 C   0  0  0  0  0  0  0  0  0  0  0  0
    5.4240    0.3642    0.0000 C   0  0  0  0  0  0  0  0  0  0  0  0
    6.9235    0.3993    0.0000 O   0  0  0  0  0  0  0  0  0  0  0  0
    4.6437    1.6453    0.0000 C   0  0  0  0  0  0  0  0  0  0  0  0
    3.1442    1.6102    0.0000 C   0  0  0  0  0  0  0  0  0  0  0  0
    2.4248    0.2940    0.0000 C   0  0  0  0  0  0  0  0  0  0  0  0
    0.9252    0.2589    0.0000 C   0  0  0  0  0  0  0  0  0  0  0  0
    0.1450    1.5400    0.0000 C   0  0  0  0  0  0  0  0  0  0  0  0
   -1.3546    1.5049    0.0000 C   0  0  0  0  0  0  0  0  0  0  0  0
   -2.0740    0.1886    0.0000 C   0  0  0  0  0  0  0  0  0  0  0  0
   -2.9838    1.3812    0.0000 C   0  0  0  0  0  0  0  0  0  0  0  0
   -2.4060    2.7654    0.0000 C   0  0  0  0  0  0  0  0  0  0  0  0
  1  2  3  0
  2  3  1  0
  3  4  1  0
  3  5  1  0
  5  6  1  0
  6  7  1  0
  7  8  1  0
  8  9  1  0
  9 10  1  0
 10 11  1  0
 11 12  2  0
 12 13  1  0
 13 14  2  0
 13 15  1  0
 15 16  1  0
 16 17  1  0
 17 18  1  0
 18 19  1  0
 19 20  1  0
 20 21  1  0
 21 22  1  0
 22 23  1  0
 21  3  1  0
 21  7  1  0
 18  8  1  0
 17 11  1  0
M  END
> <Identifier>
13109.0

> <DILI>
0

$$$$

     RDKit          2D

 59 67  0  0  0  0  0  0  0  0999 V2000
   -9.3483   -4.8284    0.0000 C   0  0  0  0  0  0  0  0  0  0  0  0
   -8.9014   -3.3966    0.0000 C   0  0  0  0  0  0  0  0  0  0  0  0
   -7.4379   -3.0677    0.0000 C   0  0  0  0  0  0  0  0  0  0  0  0
   -7.3681   -4.5661    0.0000 O   0  0  0  0  0  0  0  0  0  0  0  0
   -5.9501   -3.2592    0.0000 C   0  0  0  0  0  0  0  0  0  0  0  0
   -4.8647   -2.2005    0.0000 C   0  0  0  0  0  0  0  0  0  0  0  0
   -6.2966   -1.7536    0.0000 C   0  0  0  0  0  0  0  0  0  0  0  0
   -7.1062   -0.4909    0.0000 N   0  0  0  0  0  0  0  0  0  0  0  0
   -6.9147    0.9969    0.0000 C   0  0  0  0  0  0  0  0  0  0  0  0
   -5.8117    2.0134    0.0000 C   0  0  0  0  0  0  0  0  0  0  0  0
   -4.3134    2.0832    0.0000 C   0  0  0  0  0  0  0  0  0  0  0  0
   -3.1207    1.1735    0.0000 C   0  0  0  0  0  0  0  0  0  0  0  0
   -1.8870    2.0267    0.0000 N   0  0  0  0  0  0  0  0  0  0  0  0
   -2.3171    3.4637    0.0000 C   0  0  0  0  0  0  0  0  0  0  0  0
   -1.5371    4.7449    0.0000 C   0  0  0  0  0  0  0  0  0  0  0  0
   -2.2566    6.0610    0.0000 C   0  0  0  0  0  0  0  0  0  0  0  0
   -3.7562    6.0960    0.0000 C   0  0  0  0  0  0  0  0  0  0  0  0
   -4.5363    4.8148    0.0000 C   0  0  0  0  0  0  0  0  0  0  0  0
   -3.8167    3.4986    0.0000 C   0  0  0  0  0  0  0  0  0  0  0  0
   -2.7918   -0.2900    0.0000 C   0  0  0  0  0  0  0  0  0  0  0  0
   -1.7128   -1.3320    0.0000 C   0  0  0  0  0  0  0  0  0  0  0  0
   -0.2137   -1.2798    0.0000 O   0  0  0  0  0  0  0  0  0  0  0  0
   -2.0757   -2.7874    0.0000 O   0  0  0  0  0  0  0  0  0  0  0  0
   -0.9967   -3.8295    0.0000 C   0  0  0  0  0  0  0  0  0  0  0  0
   -1.4841    0.4448    0.0000 C   0  0  0  0  0  0  0  0  0  0  0  0
   -0.1939   -0.3203    0.0000 C   0  0  0  0  0  0  0  0  0  0  0  0
    1.1138    0.4145    0.0000 C   0  0  0  0  0  0  0  0  0  0  0  0
    1.1313    1.9144    0.0000 C   0  0  0  0  0  0  0  0  0  0  0  0
   -0.1589    2.6795    0.0000 C   0  0  0  0  0  0  0  0  0  0  0  0
   -1.4666    1.9447    0.0000 C   0  0  0  0  0  0  0  0  0  0  0  0
   -2.7568    2.7098    0.0000 O   0  0  0  0  0  0  0  0  0  0  0  0
   -2.7394    4.2097    0.0000 C   0  0  0  0  0  0  0  0  0  0  0  0
    2.5632    2.3613    0.0000 N   0  0  0  0  0  0  0  0  0  0  0  0
    3.0433    3.7824    0.0000 C   0  0  0  0  0  0  0  0  0  0  0  0
    3.4306    1.1376    0.0000 C   0  0  0  0  0  0  0  0  0  0  0  0
    4.9205    0.9634    0.0000 C   0  0  0  0  0  0  0  0  0  0  0  0
    4.8333    2.4609    0.0000 O   0  0  0  0  0  0  0  0  0  0  0  0
    6.3801    1.3093    0.0000 C   0  0  0  0  0  0  0  0  0  0  0  0
    7.6428    0.4997    0.0000 O   0  0  0  0  0  0  0  0  0  0  0  0
    6.8103    2.7463    0.0000 O   0  0  0  0  0  0  0  0  0  0  0  0
    8.2699    3.0922    0.0000 C   0  0  0  0  0  0  0  0  0  0  0  0
    5.5146   -0.4139    0.0000 C   0  0  0  0  0  0  0  0  0  0  0  0
    7.0044   -0.5881    0.0000 O   0  0  0  0  0  0  0  0  0  0  0  0
    7.5985   -1.9654    0.0000 C   0  0  0  0  0  0  0  0  0  0  0  0
    9.0884   -2.1396    0.0000 C   0  0  0  0  0  0  0  0  0  0  0  0
    6.8561   -3.2688    0.0000 O   0  0  0  0  0  0  0  0  0  0  0  0
    4.6188   -1.6171    0.0000 C   0  0  0  0  0  0  0  0  0  0  0  0
    6.1087   -1.7913    0.0000 C   0  0  0  0  0  0  0  0  0  0  0  0
    6.5305   -3.2307    0.0000 C   0  0  0  0  0  0  0  0  0  0  0  0
    5.2129   -2.9944    0.0000 C   0  0  0  0  0  0  0  0  0  0  0  0
    4.3172   -4.1976    0.0000 C   0  0  0  0  0  0  0  0  0  0  0  0
    2.8273   -4.0234    0.0000 C   0  0  0  0  0  0  0  0  0  0  0  0
    2.2332   -2.6461    0.0000 N   0  0  0  0  0  0  0  0  0  0  0  0
    0.8701   -2.0201    0.0000 C   0  0  0  0  0  0  0  0  0  0  0  0
    1.0443   -0.5302    0.0000 C   0  0  0  0  0  0  0  0  0  0  0  0
    2.5349   -0.0656    0.0000 C   0  0  0  0  0  0  0  0  0  0  0  0
    3.1290   -1.4429    0.0000 C   0  0  0  0  0  0  0  0  0  0  0  0
   -3.4806   -1.6225    0.0000 C   0  0  0  0  0  0  0  0  0  0  0  0
   -8.0159   -1.6835    0.0000 C   0  0  0  0  0  0  0  0  0  0  0  0
  1  2  1  0
  2  3  1  0
  3  4  1  0
  3  5  1  0
  5  6  1  0
  6  7  1  0
  7  8  1  0
  8  9  1  0
  9 10  1  0
 10 11  1  0
 11 12  2  0
 12 13  1  0
 13 14  1  0
 14 15  2  0
 15 16  1  0
 16 17  2  0
 17 18  1  0
 18 19  2  0
 12 20  1  0
 20 21  1  0
 21 22  2  0
 21 23  1  0
 23 24  1  0
 20 25  1  0
 25 26  2  0
 26 27  1  0
 27 28  2  0
 28 29  1  0
 29 30  2  0
 30 31  1  0
 31 32  1  0
 28 33  1  0
 33 34  1  0
 33 35  1  0
 35 36  1  0
 36 37  1  0
 36 38  1  0
 38 39  2  0
 38 40  1  0
 40 41  1  0
 36 42  1  0
 42 43  1  0
 43 44  1  0
 44 45  1  0
 44 46  2  0
 42 47  1  0
 47 48  1  0
 48 49  1  0
 47 50  1  0
 50 51  2  0
 51 52  1  0
 52 53  1  0
 53 54  1  0
 54 55  1  0
 55 56  1  0
 56 57  1  0
 20 58  1  0
  8 59  1  0
 59  3  1  0
 58  6  1  0
 19 11  1  0
 30 25  1  0
 56 35  1  0
 19 14  1  0
 56 27  1  0
 57 47  1  0
 57 53  1  0
M  END
> <Identifier>
13342.0

> <DILI>
0

$$$$

     RDKit          2D

 34 37  0  0  0  0  0  0  0  0999 V2000
    6.3766   -4.5508    0.0000 C   0  0  0  0  0  0  0  0  0  0  0  0
    6.2965   -3.0529    0.0000 C   0  0  0  0  0  0  0  0  0  0  0  0
    4.9592   -2.3734    0.0000 O   0  0  0  0  0  0  0  0  0  0  0  0
    4.8791   -0.8755    0.0000 C   0  0  0  0  0  0  0  0  0  0  0  0
    6.1362   -0.0572    0.0000 O   0  0  0  0  0  0  0  0  0  0  0  0
    3.5418   -0.1960    0.0000 C   0  0  0  0  0  0  0  0  0  0  0  0
    4.4432    1.0029    0.0000 C   0  0  0  0  0  0  0  0  0  0  0  0
    5.9323    0.8218    0.0000 C   0  0  0  0  0  0  0  0  0  0  0  0
    6.8337    2.0207    0.0000 C   0  0  0  0  0  0  0  0  0  0  0  0
    6.2461    3.4008    0.0000 C   0  0  0  0  0  0  0  0  0  0  0  0
    4.7571    3.5820    0.0000 C   0  0  0  0  0  0  0  0  0  0  0  0
    3.8556    2.3830    0.0000 C   0  0  0  0  0  0  0  0  0  0  0  0
    2.5176    0.8999    0.0000 C   0  0  0  0  0  0  0  0  0  0  0  0
    1.0565    0.5609    0.0000 C   0  0  0  0  0  0  0  0  0  0  0  0
    0.6195   -0.8741    0.0000 N   0  0  0  0  0  0  0  0  0  0  0  0
   -0.8417   -1.2131    0.0000 C   0  0  0  0  0  0  0  0  0  0  0  0
   -1.8659   -0.1172    0.0000 C   0  0  0  0  0  0  0  0  0  0  0  0
   -3.3271   -0.4562    0.0000 C   0  0  0  0  0  0  0  0  0  0  0  0
   -2.9881   -1.9174    0.0000 C   0  0  0  0  0  0  0  0  0  0  0  0
   -2.6490   -3.3786    0.0000 N   0  0  0  0  0  0  0  0  0  0  0  0
   -4.7883   -0.7952    0.0000 C   0  0  0  0  0  0  0  0  0  0  0  0
   -5.8125    0.3007    0.0000 C   0  0  0  0  0  0  0  0  0  0  0  0
   -7.2737   -0.0384    0.0000 C   0  0  0  0  0  0  0  0  0  0  0  0
   -7.7107   -1.4733    0.0000 C   0  0  0  0  0  0  0  0  0  0  0  0
   -6.6865   -2.5692    0.0000 C   0  0  0  0  0  0  0  0  0  0  0  0
   -5.2253   -2.2302    0.0000 C   0  0  0  0  0  0  0  0  0  0  0  0
   -3.6661    1.0050    0.0000 C   0  0  0  0  0  0  0  0  0  0  0  0
   -2.5702    2.0292    0.0000 C   0  0  0  0  0  0  0  0  0  0  0  0
   -2.9092    3.4904    0.0000 C   0  0  0  0  0  0  0  0  0  0  0  0
   -4.3442    3.9273    0.0000 C   0  0  0  0  0  0  0  0  0  0  0  0
   -5.4401    2.9031    0.0000 C   0  0  0  0  0  0  0  0  0  0  0  0
   -5.1011    1.4420    0.0000 C   0  0  0  0  0  0  0  0  0  0  0  0
    1.6437   -1.9700    0.0000 C   0  0  0  0  0  0  0  0  0  0  0  0
    3.1049   -1.6310    0.0000 C   0  0  0  0  0  0  0  0  0  0  0  0
  1  2  1  0
  2  3  1  0
  3  4  1  0
  4  5  2  0
  4  6  1  0
  6  7  1  0
  7  8  2  0
  8  9  1  0
  9 10  2  0
 10 11  1  0
 11 12  2  0
  6 13  1  0
 13 14  1  0
 14 15  1  0
 15 16  1  0
 16 17  1  0
 17 18  1  0
 18 19  1  0
 19 20  3  0
 18 21  1  0
 21 22  2  0
 22 23  1  0
 23 24  2  0
 24 25  1  0
 25 26  2  0
 18 27  1  0
 27 28  2  0
 28 29  1  0
 29 30  2  0
 30 31  1  0
 31 32  2  0
 15 33  1  0
 33 34  1  0
 34  6  1  0
 12  7  1  0
 26 21  1  0
 32 27  1  0
M  END
> <Identifier>
13505.0

> <DILI>
0

$$$$

     RDKit          2D

 31 32  0  0  0  0  0  0  0  0999 V2000
   -6.5611   -4.3927    0.0000 C   0  0  0  0  0  0  0  0  0  0  0  0
   -5.2257   -3.7097    0.0000 N   0  0  0  0  0  4  0  0  0  0  0  0
   -3.8902   -3.0267    0.0000 C   0  0  0  0  0  0  0  0  0  0  0  0
   -4.5427   -5.0452    0.0000 C   0  0  0  0  0  0  0  0  0  0  0  0
   -5.9087   -2.3742    0.0000 C   0  0  0  0  0  0  0  0  0  0  0  0
   -5.0937   -1.1150    0.0000 C   0  0  0  0  0  0  0  0  0  0  0  0
   -5.7767    0.2205    0.0000 O   0  0  0  0  0  0  0  0  0  0  0  0
   -4.9616    1.4798    0.0000 P   0  0  0  0  0  0  0  0  0  0  0  0
   -6.2209    2.2948    0.0000 O   0  0  0  0  0  0  0  0  0  0  0  0
   -3.7024    0.6647    0.0000 O   0  0  0  0  0  1  0  0  0  0  0  0
   -4.1466    2.7390    0.0000 O   0  0  0  0  0  0  0  0  0  0  0  0
   -2.6485    2.6628    0.0000 P   0  0  0  0  0  0  0  0  0  0  0  0
   -2.7248    1.1647    0.0000 O   0  0  0  0  0  0  0  0  0  0  0  0
   -2.5723    4.1608    0.0000 O   0  0  0  0  0  0  0  0  0  0  0  0
   -1.1505    2.5866    0.0000 O   0  0  0  0  0  0  0  0  0  0  0  0
   -0.4674    1.2511    0.0000 C   0  0  0  0  0  0  0  0  0  0  0  0
    1.0306    1.1749    0.0000 C   0  0  0  0  0  0  0  0  0  0  0  0
    1.8495   -0.0819    0.0000 O   0  0  0  0  0  0  0  0  0  0  0  0
    3.2978    0.3086    0.0000 C   0  0  0  0  0  0  0  0  0  0  0  0
    4.4649   -0.6337    0.0000 N   0  0  0  0  0  0  0  0  0  0  0  0
    4.2325   -2.1155    0.0000 C   0  0  0  0  0  0  0  0  0  0  0  0
    5.3997   -3.0577    0.0000 C   0  0  0  0  0  0  0  0  0  0  0  0
    6.7993   -2.5181    0.0000 C   0  0  0  0  0  0  0  0  0  0  0  0
    7.9664   -3.4603    0.0000 N   0  0  0  0  0  0  0  0  0  0  0  0
    7.0316   -1.0362    0.0000 N   0  0  0  0  0  0  0  0  0  0  0  0
    5.8645   -0.0940    0.0000 C   0  0  0  0  0  0  0  0  0  0  0  0
    6.0969    1.3879    0.0000 O   0  0  0  0  0  0  0  0  0  0  0  0
    3.3740    1.8066    0.0000 C   0  0  0  0  0  0  0  0  0  0  0  0
    4.6308    2.6255    0.0000 O   0  0  0  0  0  0  0  0  0  0  0  0
    1.9728    2.3420    0.0000 C   0  0  0  0  0  0  0  0  0  0  0  0
    1.5824    3.7903    0.0000 O   0  0  0  0  0  0  0  0  0  0  0  0
  1  2  1  0
  2  3  1  0
  2  4  1  0
  2  5  1  0
  5  6  1  0
  6  7  1  0
  7  8  1  0
  8  9  2  0
  8 10  1  0
  8 11  1  0
 11 12  1  0
 12 13  2  0
 12 14  1  0
 12 15  1  0
 15 16  1  0
 16 17  1  0
 17 18  1  0
 18 19  1  0
 19 20  1  0
 20 21  1  0
 21 22  2  0
 22 23  1  0
 23 24  1  0
 23 25  2  0
 25 26  1  0
 26 27  2  0
 19 28  1  0
 28 29  1  0
 28 30  1  0
 30 31  1  0
 30 17  1  0
 26 20  1  0
M  CHG  2   2   1  10  -1
M  END
> <Identifier>
13804.0

> <DILI>
0

$$$$

     RDKit          2D

 23 27  0  0  0  0  0  0  0  0999 V2000
    1.0061    4.6988    0.0000 C   0  0  0  0  0  0  0  0  0  0  0  0
    1.4199    3.2570    0.0000 O   0  0  0  0  0  0  0  0  0  0  0  0
    0.3781    2.1777    0.0000 C   0  0  0  0  0  0  0  0  0  0  0  0
   -1.0774    2.5402    0.0000 C   0  0  0  0  0  0  0  0  0  0  0  0
   -2.1191    1.4610    0.0000 C   0  0  0  0  0  0  0  0  0  0  0  0
   -1.7053    0.0192    0.0000 C   0  0  0  0  0  0  0  0  0  0  0  0
   -0.2498   -0.3434    0.0000 C   0  0  0  0  0  0  0  0  0  0  0  0
    0.1640   -1.7851    0.0000 O   0  0  0  0  0  0  0  0  0  0  0  0
    1.6196   -2.1477    0.0000 C   0  0  0  0  0  0  0  0  0  0  0  0
    2.0334   -3.5895    0.0000 O   0  0  0  0  0  0  0  0  0  0  0  0
    2.6613   -1.0684    0.0000 C   0  0  0  0  0  0  0  0  0  0  0  0
    2.2475    0.3734    0.0000 C   0  0  0  0  0  0  0  0  0  0  0  0
    0.7919    0.7359    0.0000 C   0  0  0  0  0  0  0  0  0  0  0  0
    3.4908    1.2125    0.0000 C   0  0  0  0  0  0  0  0  0  0  0  0
    4.6731    0.2893    0.0000 C   0  0  0  0  0  0  0  0  0  0  0  0
    4.1604   -1.1204    0.0000 C   0  0  0  0  0  0  0  0  0  0  0  0
    4.9995   -2.3638    0.0000 O   0  0  0  0  0  0  0  0  0  0  0  0
   -2.9487   -0.8199    0.0000 C   0  0  0  0  0  0  0  0  0  0  0  0
   -3.4614   -2.2296    0.0000 C   0  0  0  0  0  0  0  0  0  0  0  0
   -4.9605   -2.1776    0.0000 C   0  0  0  0  0  0  0  0  0  0  0  0
   -5.3743   -0.7358    0.0000 O   0  0  0  0  0  0  0  0  0  0  0  0
   -4.1309    0.1033    0.0000 C   0  0  0  0  0  0  0  0  0  0  0  0
   -3.6182    1.5130    0.0000 O   0  0  0  0  0  0  0  0  0  0  0  0
  1  2  1  0
  2  3  1  0
  3  4  2  0
  4  5  1  0
  5  6  2  0
  6  7  1  0
  7  8  1  0
  8  9  1  0
  9 10  2  0
  9 11  1  0
 11 12  2  0
 12 13  1  0
 12 14  1  0
 14 15  1  0
 15 16  1  0
 16 17  2  0
  6 18  1  0
 18 19  1  0
 19 20  2  0
 20 21  1  0
 21 22  1  0
 22 23  1  0
 13  3  1  0
 22 18  1  0
 23  5  1  0
 13  7  2  0
 16 11  1  0
M  END
> <Identifier>
14403.0

> <DILI>
1

$$$$

     RDKit          2D

 31 32  0  0  0  0  0  0  0  0999 V2000
   -8.3451   -2.0447    0.0000 C   0  0  0  0  0  0  0  0  0  0  0  0
   -6.9081   -1.6145    0.0000 C   0  0  0  0  0  0  0  0  0  0  0  0
   -6.5622   -0.1549    0.0000 C   0  0  0  0  0  0  0  0  0  0  0  0
   -7.6533    0.8744    0.0000 C   0  0  0  0  0  0  0  0  0  0  0  0
   -5.1252    0.2753    0.0000 C   0  0  0  0  0  0  0  0  0  0  0  0
   -4.0342   -0.7540    0.0000 C   0  0  0  0  0  0  0  0  0  0  0  0
   -4.3801   -2.2136    0.0000 C   0  0  0  0  0  0  0  0  0  0  0  0
   -3.2890   -3.2430    0.0000 C   0  0  0  0  0  0  0  0  0  0  0  0
   -5.8171   -2.6438    0.0000 C   0  0  0  0  0  0  0  0  0  0  0  0
   -6.1630   -4.1034    0.0000 O   0  0  0  0  0  0  0  0  0  0  0  0
   -2.5972   -0.3238    0.0000 C   0  0  0  0  0  0  0  0  0  0  0  0
   -2.2513    1.1357    0.0000 C   0  0  0  0  0  0  0  0  0  0  0  0
   -3.3424    2.1651    0.0000 C   0  0  0  0  0  0  0  0  0  0  0  0
   -4.0156    3.5055    0.0000 C   0  0  0  0  0  0  0  0  0  0  0  0
   -2.1392    3.0609    0.0000 C   0  0  0  0  0  0  0  0  0  0  0  0
   -0.7619    2.4667    0.0000 C   0  0  0  0  0  0  0  0  0  0  0  0
    0.4413    3.3625    0.0000 C   0  0  0  0  0  0  0  0  0  0  0  0
    1.8187    2.7684    0.0000 C   0  0  0  0  0  0  0  0  0  0  0  0
    3.0218    3.6642    0.0000 C   0  0  0  0  0  0  0  0  0  0  0  0
    1.9928    1.2785    0.0000 C   0  0  0  0  0  0  0  0  0  0  0  0
    3.3701    0.6844    0.0000 C   0  0  0  0  0  0  0  0  0  0  0  0
    3.5443   -0.8054    0.0000 C   0  0  0  0  0  0  0  0  0  0  0  0
    4.9216   -1.3995    0.0000 C   0  0  0  0  0  0  0  0  0  0  0  0
    5.0958   -2.8894    0.0000 C   0  0  0  0  0  0  0  0  0  0  0  0
    6.1248   -0.5038    0.0000 C   0  0  0  0  0  0  0  0  0  0  0  0
    7.5021   -1.0979    0.0000 C   0  0  0  0  0  0  0  0  0  0  0  0
    8.7053   -0.2021    0.0000 C   0  0  0  0  0  0  0  0  0  0  0  0
   10.0826   -0.7962    0.0000 C   0  0  0  0  0  0  0  0  0  0  0  0
   11.2858    0.0995    0.0000 C   0  0  0  0  0  0  0  0  0  0  0  0
   10.2568   -2.2861    0.0000 C   0  0  0  0  0  0  0  0  0  0  0  0
   -4.7793    1.7349    0.0000 O   0  0  0  0  0  0  0  0  0  0  0  0
  1  2  1  0
  2  3  2  0
  3  4  1  0
  3  5  1  0
  5  6  2  0
  6  7  1  0
  7  8  1  0
  7  9  2  0
  9 10  1  0
  6 11  1  0
 11 12  1  0
 12 13  1  0
 13 14  1  0
 13 15  1  0
 15 16  1  0
 16 17  1  0
 17 18  1  0
 18 19  1  0
 18 20  1  0
 20 21  1  0
 21 22  1  0
 22 23  1  0
 23 24  1  0
 23 25  1  0
 25 26  1  0
 26 27  1  0
 27 28  1  0
 28 29  1  0
 28 30  1  0
 13 31  1  0
  9  2  1  0
 31  5  1  0
M  END
> <Identifier>
14985.0

> <DILI>
0

$$$$

     RDKit          2D

 14 14  0  0  0  0  0  0  0  0999 V2000
   -5.3860   -0.4910    0.0000 C   0  0  0  0  0  0  0  0  0  0  0  0
   -3.9686    0.0000    0.0000 C   0  0  0  0  0  0  0  0  0  0  0  0
   -3.6852    1.4730    0.0000 C   0  0  0  0  0  0  0  0  0  0  0  0
   -2.8347   -0.9820    0.0000 C   0  0  0  0  0  0  0  0  0  0  0  0
   -1.4174   -0.4910    0.0000 C   0  0  0  0  0  0  0  0  0  0  0  0
   -1.1339    0.9820    0.0000 C   0  0  0  0  0  0  0  0  0  0  0  0
    0.2835    1.4730    0.0000 C   0  0  0  0  0  0  0  0  0  0  0  0
    1.4174    0.4910    0.0000 C   0  0  0  0  0  0  0  0  0  0  0  0
    2.8347    0.9820    0.0000 C   0  0  0  0  0  0  0  0  0  0  0  0
    3.9686   -0.0000    0.0000 C   0  0  0  0  0  0  0  0  0  0  0  0
    3.6852   -1.4730    0.0000 O   0  0  0  0  0  0  0  0  0  0  0  0
    5.3860    0.4910    0.0000 O   0  0  0  0  0  0  0  0  0  0  0  0
    1.1339   -0.9820    0.0000 C   0  0  0  0  0  0  0  0  0  0  0  0
   -0.2835   -1.4730    0.0000 C   0  0  0  0  0  0  0  0  0  0  0  0
  1  2  1  0
  2  3  1  0
  2  4  1  0
  4  5  1  0
  5  6  2  0
  6  7  1  0
  7  8  2  0
  8  9  1  0
  9 10  1  0
 10 11  2  0
 10 12  1  0
  8 13  1  0
 13 14  2  0
 14  5  1  0
M  END
> <Identifier>
15250.0

> <DILI>
1

$$$$

     RDKit          2D

 23 25  0  0  0  0  0  0  0  0999 V2000
   -4.6610    2.9837    0.0000 C   0  0  0  0  0  0  0  0  0  0  0  0
   -4.5918    1.4853    0.0000 N   0  0  0  0  0  0  0  0  0  0  0  0
   -3.2596    0.7961    0.0000 C   0  0  0  0  0  0  0  0  0  0  0  0
   -3.1903   -0.7023    0.0000 C   0  0  0  0  0  0  0  0  0  0  0  0
   -4.4534   -1.5115    0.0000 O   0  0  0  0  0  0  0  0  0  0  0  0
   -1.8581   -1.3916    0.0000 C   0  0  0  0  0  0  0  0  0  0  0  0
   -1.7889   -2.8900    0.0000 N   0  0  0  0  0  0  0  0  0  0  0  0
   -3.0519   -3.6991    0.0000 C   0  0  0  0  0  0  0  0  0  0  0  0
   -0.5950   -0.5824    0.0000 C   0  0  0  0  0  0  0  0  0  0  0  0
    0.7372   -1.2717    0.0000 O   0  0  0  0  0  0  0  0  0  0  0  0
    2.0003   -0.4625    0.0000 C   0  0  0  0  0  0  0  0  0  0  0  0
    2.0695   -1.9609    0.0000 O   0  0  0  0  0  0  0  0  0  0  0  0
    3.3325   -1.1518    0.0000 C   0  0  0  0  0  0  0  0  0  0  0  0
    3.4018   -2.6502    0.0000 O   0  0  0  0  0  0  0  0  0  0  0  0
    4.5956   -0.3426    0.0000 C   0  0  0  0  0  0  0  0  0  0  0  0
    4.5264    1.1558    0.0000 C   0  0  0  0  0  0  0  0  0  0  0  0
    5.7894    1.9649    0.0000 C   0  0  0  0  0  0  0  0  0  0  0  0
    3.1941    1.8450    0.0000 O   0  0  0  0  0  0  0  0  0  0  0  0
    1.9311    1.0359    0.0000 C   0  0  0  0  0  0  0  0  0  0  0  0
    0.5988    1.7251    0.0000 O   0  0  0  0  0  0  0  0  0  0  0  0
   -0.6643    0.9160    0.0000 C   0  0  0  0  0  0  0  0  0  0  0  0
   -1.9965    1.6052    0.0000 C   0  0  0  0  0  0  0  0  0  0  0  0
   -2.0657    3.1036    0.0000 O   0  0  0  0  0  0  0  0  0  0  0  0
  1  2  1  0
  2  3  1  0
  3  4  1  0
  4  5  1  0
  4  6  1  0
  6  7  1  0
  7  8  1  0
  6  9  1  0
  9 10  1  0
 10 11  1  0
 11 12  1  0
 11 13  1  0
 13 14  2  0
 13 15  1  0
 15 16  1  0
 16 17  1  0
 16 18  1  0
 18 19  1  0
 19 20  1  0
 20 21  1  0
 21 22  1  0
 22 23  1  0
 22  3  1  0
 21  9  1  0
 19 11  1  0
M  END
> <Identifier>
15541.0

> <DILI>
0

$$$$

     RDKit          2D

 15 15  0  0  0  0  0  0  0  0999 V2000
   -4.5523    1.9148    0.0000 N   0  0  0  0  0  0  0  0  0  0  0  0
   -3.6824    0.6928    0.0000 C   0  0  0  0  0  0  0  0  0  0  0  0
   -4.3057   -0.6715    0.0000 N   0  0  0  0  0  0  0  0  0  0  0  0
   -2.1892    0.8352    0.0000 N   0  0  0  0  0  0  0  0  0  0  0  0
   -1.3192   -0.3868    0.0000 C   0  0  0  0  0  0  0  0  0  0  0  0
   -1.9426   -1.7511    0.0000 O   0  0  0  0  0  0  0  0  0  0  0  0
    0.1740   -0.2444    0.0000 C   0  0  0  0  0  0  0  0  0  0  0  0
    0.7973    1.1200    0.0000 N   0  0  0  0  0  0  0  0  0  0  0  0
    2.2905    1.2623    0.0000 C   0  0  0  0  0  0  0  0  0  0  0  0
    2.9138    2.6267    0.0000 Cl  0  0  0  0  0  0  0  0  0  0  0  0
    3.1604    0.0404    0.0000 C   0  0  0  0  0  0  0  0  0  0  0  0
    4.6537    0.1827    0.0000 N   0  0  0  0  0  0  0  0  0  0  0  0
    2.5371   -1.3240    0.0000 N   0  0  0  0  0  0  0  0  0  0  0  0
    1.0439   -1.4664    0.0000 C   0  0  0  0  0  0  0  0  0  0  0  0
    0.4206   -2.8307    0.0000 N   0  0  0  0  0  0  0  0  0  0  0  0
  1  2  1  0
  2  3  1  0
  2  4  2  0
  4  5  1  0
  5  6  2  0
  5  7  1  0
  7  8  2  0
  8  9  1  0
  9 10  1  0
  9 11  2  0
 11 12  1  0
 11 13  1  0
 13 14  2  0
 14 15  1  0
 14  7  1  0
M  END
> <Identifier>
16231.0

> <DILI>
1

$$$$

     RDKit          2D

 34 38  0  0  0  0  0  0  0  0999 V2000
    6.3069   -3.4762    0.0000 O   0  0  0  0  0  0  0  0  0  0  0  0
    6.4586   -1.9839    0.0000 C   0  0  0  0  0  0  0  0  0  0  0  0
    7.7551   -1.2295    0.0000 N   0  0  0  0  0  0  0  0  0  0  0  0
    7.4383    0.2367    0.0000 C   0  0  0  0  0  0  0  0  0  0  0  0
    8.3158    1.4532    0.0000 C   0  0  0  0  0  0  0  0  0  0  0  0
    7.7011    2.8215    0.0000 C   0  0  0  0  0  0  0  0  0  0  0  0
    6.2088    2.9732    0.0000 C   0  0  0  0  0  0  0  0  0  0  0  0
    5.3312    1.7567    0.0000 C   0  0  0  0  0  0  0  0  0  0  0  0
    5.9460    0.3884    0.0000 C   0  0  0  0  0  0  0  0  0  0  0  0
    5.3405   -0.9839    0.0000 N   0  0  0  0  0  0  0  0  0  0  0  0
    3.8743   -1.3008    0.0000 C   0  0  0  0  0  0  0  0  0  0  0  0
    2.8669   -0.1895    0.0000 C   0  0  0  0  0  0  0  0  0  0  0  0
    1.4007   -0.5063    0.0000 C   0  0  0  0  0  0  0  0  0  0  0  0
    0.9420   -1.9345    0.0000 N   0  0  0  0  0  0  0  0  0  0  0  0
   -0.5241   -2.2513    0.0000 C   0  0  0  0  0  0  0  0  0  0  0  0
   -1.5316   -1.1400    0.0000 C   0  0  0  0  0  0  0  0  0  0  0  0
   -2.9977   -1.4569    0.0000 C   0  0  0  0  0  0  0  0  0  0  0  0
   -4.0052   -0.3455    0.0000 C   0  0  0  0  0  0  0  0  0  0  0  0
   -5.4714   -0.6624    0.0000 C   0  0  0  0  0  0  0  0  0  0  0  0
   -6.4788    0.4489    0.0000 C   0  0  0  0  0  0  0  0  0  0  0  0
   -7.9450    0.1321    0.0000 C   0  0  0  0  0  0  0  0  0  0  0  0
   -8.4037   -1.2961    0.0000 C   0  0  0  0  0  0  0  0  0  0  0  0
   -9.8698   -1.6129    0.0000 F   0  0  0  0  0  0  0  0  0  0  0  0
   -7.3962   -2.4074    0.0000 C   0  0  0  0  0  0  0  0  0  0  0  0
   -5.9301   -2.0905    0.0000 C   0  0  0  0  0  0  0  0  0  0  0  0
   -3.5465    1.0826    0.0000 C   0  0  0  0  0  0  0  0  0  0  0  0
   -2.0804    1.3994    0.0000 C   0  0  0  0  0  0  0  0  0  0  0  0
   -1.6217    2.8276    0.0000 C   0  0  0  0  0  0  0  0  0  0  0  0
   -2.6292    3.9389    0.0000 C   0  0  0  0  0  0  0  0  0  0  0  0
   -2.1705    5.3670    0.0000 F   0  0  0  0  0  0  0  0  0  0  0  0
   -4.0953    3.6221    0.0000 C   0  0  0  0  0  0  0  0  0  0  0  0
   -4.5540    2.1939    0.0000 C   0  0  0  0  0  0  0  0  0  0  0  0
    1.9495   -3.0458    0.0000 C   0  0  0  0  0  0  0  0  0  0  0  0
    3.4157   -2.7289    0.0000 C   0  0  0  0  0  0  0  0  0  0  0  0
  1  2  2  0
  2  3  1  0
  3  4  1  0
  4  5  2  0
  5  6  1  0
  6  7  2  0
  7  8  1  0
  8  9  2  0
  9 10  1  0
 10 11  1  0
 11 12  1  0
 12 13  1  0
 13 14  1  0
 14 15  1  0
 15 16  1  0
 16 17  1  0
 17 18  1  0
 18 19  1  0
 19 20  2  0
 20 21  1  0
 21 22  2  0
 22 23  1  0
 22 24  1  0
 24 25  2  0
 18 26  1  0
 26 27  2  0
 27 28  1  0
 28 29  2  0
 29 30  1  0
 29 31  1  0
 31 32  2  0
 14 33  1  0
 33 34  1  0
 10  2  1  0
 34 11  1  0
  9  4  1  0
 25 19  1  0
 32 26  1  0
M  END
> <Identifier>
16362.0

> <DILI>
0

$$$$

     RDKit          2D

 19 20  0  0  0  0  0  0  0  0999 V2000
   -4.9080    2.2582    0.0000 C   0  0  0  0  0  0  0  0  0  0  0  0
   -3.4178    2.4292    0.0000 N   0  0  0  0  0  0  0  0  0  0  0  0
   -2.8208    3.8053    0.0000 C   0  0  0  0  0  0  0  0  0  0  0  0
   -2.5245    1.2242    0.0000 C   0  0  0  0  0  0  0  0  0  0  0  0
   -1.0343    1.3953    0.0000 C   0  0  0  0  0  0  0  0  0  0  0  0
   -0.1410    0.1903    0.0000 C   0  0  0  0  0  0  0  0  0  0  0  0
    1.3492    0.3613    0.0000 C   0  0  0  0  0  0  0  0  0  0  0  0
    2.2424   -0.8437    0.0000 C   0  0  0  0  0  0  0  0  0  0  0  0
    3.7326   -0.6726    0.0000 C   0  0  0  0  0  0  0  0  0  0  0  0
    4.3296    0.7035    0.0000 C   0  0  0  0  0  0  0  0  0  0  0  0
    5.8198    0.8746    0.0000 Br  0  0  0  0  0  0  0  0  0  0  0  0
    3.4363    1.9085    0.0000 C   0  0  0  0  0  0  0  0  0  0  0  0
    1.9461    1.7374    0.0000 C   0  0  0  0  0  0  0  0  0  0  0  0
   -0.7380   -1.1858    0.0000 C   0  0  0  0  0  0  0  0  0  0  0  0
   -2.2282   -1.3569    0.0000 C   0  0  0  0  0  0  0  0  0  0  0  0
   -2.8252   -2.7330    0.0000 C   0  0  0  0  0  0  0  0  0  0  0  0
   -1.9319   -3.9380    0.0000 C   0  0  0  0  0  0  0  0  0  0  0  0
   -0.4417   -3.7670    0.0000 C   0  0  0  0  0  0  0  0  0  0  0  0
    0.1553   -2.3909    0.0000 N   0  0  0  0  0  0  0  0  0  0  0  0
  1  2  1  0
  2  3  1  0
  2  4  1  0
  4  5  1  0
  5  6  1  0
  6  7  1  0
  7  8  2  0
  8  9  1  0
  9 10  2  0
 10 11  1  0
 10 12  1  0
 12 13  2  0
  6 14  1  0
 14 15  2  0
 15 16  1  0
 16 17  2  0
 17 18  1  0
 18 19  2  0
 13  7  1  0
 19 14  1  0
M  END
> <Identifier>
16960.0

> <DILI>
0

$$$$

     RDKit          2D

 30 33  0  0  0  0  0  0  0  0999 V2000
   -8.6281    0.7610    0.0000 O   0  0  0  0  0  0  0  0  0  0  0  0
   -7.1742    0.3918    0.0000 C   0  0  0  0  0  0  0  0  0  0  0  0
   -6.7669   -1.0518    0.0000 C   0  0  0  0  0  0  0  0  0  0  0  0
   -5.3130   -1.4209    0.0000 N   0  0  0  0  0  0  0  0  0  0  0  0
   -4.2664   -0.3464    0.0000 C   0  0  0  0  0  0  0  0  0  0  0  0
   -2.8126   -0.7155    0.0000 C   0  0  0  0  0  0  0  0  0  0  0  0
   -2.4053   -2.1592    0.0000 N   0  0  0  0  0  0  0  0  0  0  0  0
   -0.9514   -2.5283    0.0000 C   0  0  0  0  0  0  0  0  0  0  0  0
    0.0952   -1.4538    0.0000 C   0  0  0  0  0  0  0  0  0  0  0  0
    1.5491   -1.8229    0.0000 C   0  0  0  0  0  0  0  0  0  0  0  0
    2.5957   -0.7484    0.0000 C   0  0  0  0  0  0  0  0  0  0  0  0
    4.0495   -1.1175    0.0000 C   0  0  0  0  0  0  0  0  0  0  0  0
    4.4568   -2.5611    0.0000 C   0  0  0  0  0  0  0  0  0  0  0  0
    5.9107   -2.9303    0.0000 C   0  0  0  0  0  0  0  0  0  0  0  0
    6.9573   -1.8557    0.0000 C   0  0  0  0  0  0  0  0  0  0  0  0
    6.5500   -0.4121    0.0000 C   0  0  0  0  0  0  0  0  0  0  0  0
    5.0961   -0.0429    0.0000 C   0  0  0  0  0  0  0  0  0  0  0  0
    4.6889    1.4007    0.0000 S   0  0  0  0  0  0  0  0  0  0  0  0
    3.2350    1.7698    0.0000 C   0  0  0  0  0  0  0  0  0  0  0  0
    2.8277    3.2135    0.0000 C   0  0  0  0  0  0  0  0  0  0  0  0
    1.3739    3.5826    0.0000 C   0  0  0  0  0  0  0  0  0  0  0  0
    0.3273    2.5081    0.0000 C   0  0  0  0  0  0  0  0  0  0  0  0
   -1.1266    2.8772    0.0000 C   0  0  0  0  0  0  0  0  0  0  0  0
   -2.5805    3.2463    0.0000 F   0  0  0  0  0  0  0  0  0  0  0  0
   -0.7575    4.3311    0.0000 F   0  0  0  0  0  0  0  0  0  0  0  0
   -1.4957    1.4233    0.0000 F   0  0  0  0  0  0  0  0  0  0  0  0
    0.7345    1.0644    0.0000 C   0  0  0  0  0  0  0  0  0  0  0  0
    2.1884    0.6953    0.0000 C   0  0  0  0  0  0  0  0  0  0  0  0
   -3.4519   -3.2337    0.0000 C   0  0  0  0  0  0  0  0  0  0  0  0
   -4.9058   -2.8646    0.0000 C   0  0  0  0  0  0  0  0  0  0  0  0
  1  2  1  0
  2  3  1  0
  3  4  1  0
  4  5  1  0
  5  6  1  0
  6  7  1  0
  7  8  1  0
  8  9  1  0
  9 10  1  0
 10 11  2  3
 11 12  1  0
 12 13  2  0
 13 14  1  0
 14 15  2  0
 15 16  1  0
 16 17  2  0
 17 18  1  0
 18 19  1  0
 19 20  2  0
 20 21  1  0
 21 22  2  0
 22 23  1  0
 23 24  1  0
 23 25  1  0
 23 26  1  0
 22 27  1  0
 27 28  2  0
  7 29  1  0
 29 30  1  0
 30  4  1  0
 28 11  1  0
 17 12  1  0
 28 19  1  0
M  END
> <Identifier>
17012.0

> <DILI>
0

$$$$

     RDKit          2D

 16 17  0  0  0  0  0  0  0  0999 V2000
    4.0784   -1.9184    0.0000 C   0  0  0  0  0  0  0  0  0  0  0  0
    3.0219   -0.8536    0.0000 C   0  0  0  0  0  0  0  0  0  0  0  0
    1.5715   -1.2363    0.0000 C   0  0  0  0  0  0  0  0  0  0  0  0
    0.5150   -0.1715    0.0000 N   0  0  0  0  0  0  0  0  0  0  0  0
   -0.9354   -0.5541    0.0000 C   0  0  0  0  0  0  0  0  0  0  0  0
   -1.4784   -1.9524    0.0000 C   0  0  0  0  0  0  0  0  0  0  0  0
   -2.9760   -1.8681    0.0000 C   0  0  0  0  0  0  0  0  0  0  0  0
   -3.3586   -0.4178    0.0000 C   0  0  0  0  0  0  0  0  0  0  0  0
   -4.7569    0.1252    0.0000 C   0  0  0  0  0  0  0  0  0  0  0  0
   -4.9859    1.6076    0.0000 O   0  0  0  0  0  0  0  0  0  0  0  0
   -2.0975    0.3943    0.0000 O   0  0  0  0  0  0  0  0  0  0  0  0
    0.9088    1.2759    0.0000 C   0  0  0  0  0  0  0  0  0  0  0  0
   -0.1478    2.3406    0.0000 O   0  0  0  0  0  0  0  0  0  0  0  0
    2.3592    1.6585    0.0000 N   0  0  0  0  0  0  0  0  0  0  0  0
    3.4157    0.5937    0.0000 C   0  0  0  0  0  0  0  0  0  0  0  0
    4.8661    0.9764    0.0000 O   0  0  0  0  0  0  0  0  0  0  0  0
  1  2  1  0
  2  3  2  0
  3  4  1  0
  4  5  1  0
  5  6  1  0
  6  7  2  0
  7  8  1  0
  8  9  1  0
  9 10  1  0
  8 11  1  0
  4 12  1  0
 12 13  2  0
 12 14  1  0
 14 15  1  0
 15 16  2  0
 15  2  1  0
 11  5  1  0
M  END
> <Identifier>
18283.0

> <DILI>
1

$$$$

     RDKit          2D

 30 33  0  0  0  0  0  0  0  0999 V2000
    1.9309    4.1643    0.0000 C   0  0  0  0  0  0  0  0  0  0  0  0
    2.8582    2.9853    0.0000 C   0  0  0  0  0  0  0  0  0  0  0  0
    4.3571    3.0425    0.0000 O   0  0  0  0  0  0  0  0  0  0  0  0
    4.8747    1.6347    0.0000 N   0  0  0  0  0  0  0  0  0  0  0  0
    3.6957    0.7073    0.0000 C   0  0  0  0  0  0  0  0  0  0  0  0
    3.7530   -0.7916    0.0000 C   0  0  0  0  0  0  0  0  0  0  0  0
    2.4835   -1.5906    0.0000 C   0  0  0  0  0  0  0  0  0  0  0  0
    1.2216   -1.1110    0.0000 Cl  0  0  0  0  0  0  0  0  0  0  0  0
    2.5408   -3.0895    0.0000 C   0  0  0  0  0  0  0  0  0  0  0  0
    3.8675   -3.7894    0.0000 C   0  0  0  0  0  0  0  0  0  0  0  0
    5.1369   -2.9904    0.0000 C   0  0  0  0  0  0  0  0  0  0  0  0
    5.0797   -1.4915    0.0000 C   0  0  0  0  0  0  0  0  0  0  0  0
    6.3492   -0.6924    0.0000 Cl  0  0  0  0  0  0  0  0  0  0  0  0
    2.4495    1.5420    0.0000 C   0  0  0  0  0  0  0  0  0  0  0  0
    1.0416    1.0244    0.0000 C   0  0  0  0  0  0  0  0  0  0  0  0
    0.6511   -0.2679    0.0000 O   0  0  0  0  0  0  0  0  0  0  0  0
   -0.1106    1.9848    0.0000 N   0  0  0  0  0  0  0  0  0  0  0  0
   -1.5185    1.4672    0.0000 C   0  0  0  0  0  0  0  0  0  0  0  0
   -2.8800    2.0967    0.0000 C   0  0  0  0  0  0  0  0  0  0  0  0
   -3.3976    3.5046    0.0000 O   0  0  0  0  0  0  0  0  0  0  0  0
   -3.5095    0.7352    0.0000 N   0  0  0  0  0  0  0  0  0  0  0  0
   -2.1480    0.1057    0.0000 C   0  0  0  0  0  0  0  0  0  0  0  0
   -2.3259   -1.3837    0.0000 S   0  0  0  0  0  0  0  0  0  0  0  0
   -3.7974   -1.6747    0.0000 C   0  0  0  0  0  0  0  0  0  0  0  0
   -3.3542   -3.1078    0.0000 C   0  0  0  0  0  0  0  0  0  0  0  0
   -5.1762   -2.2653    0.0000 C   0  0  0  0  0  0  0  0  0  0  0  0
   -4.5289   -0.3652    0.0000 C   0  0  0  0  0  0  0  0  0  0  0  0
   -6.0183   -0.1872    0.0000 C   0  0  0  0  0  0  0  0  0  0  0  0
   -6.9171   -1.3881    0.0000 O   0  0  0  0  0  0  0  0  0  0  0  0
   -6.6089    1.1916    0.0000 O   0  0  0  0  0  0  0  0  0  0  0  0
  1  2  1  0
  2  3  1  0
  3  4  1  0
  4  5  2  0
  5  6  1  0
  6  7  2  0
  7  8  1  0
  7  9  1  0
  9 10  2  0
 10 11  1  0
 11 12  2  0
 12 13  1  0
  5 14  1  0
 14 15  1  0
 15 16  2  0
 15 17  1  0
 17 18  1  0
 18 19  1  0
 19 20  2  0
 19 21  1  0
 21 22  1  0
 22 23  1  0
 23 24  1  0
 24 25  1  0
 24 26  1  0
 24 27  1  0
 27 28  1  0
 28 29  2  0
 28 30  1  0
 14  2  2  0
 22 18  1  0
 12  6  1  0
 27 21  1  0
M  END
> <Identifier>
18381.0

> <DILI>
1

$$$$

     RDKit          2D

 40 42  0  0  0  0  0  0  0  0999 V2000
    2.0826   -3.4738    0.0000 C   0  0  0  0  0  0  0  0  0  0  0  0
    3.5788   -3.5812    0.0000 N   0  0  0  0  0  0  0  0  0  0  0  0
    4.4199   -2.3393    0.0000 C   0  0  0  0  0  0  0  0  0  0  0  0
    3.7649   -0.9898    0.0000 C   0  0  0  0  0  0  0  0  0  0  0  0
    2.2687   -0.8824    0.0000 O   0  0  0  0  0  0  0  0  0  0  0  0
    1.6137    0.4671    0.0000 C   0  0  0  0  0  0  0  0  0  0  0  0
    0.1370    0.7303    0.0000 C   0  0  0  0  0  0  0  0  0  0  0  0
   -0.9440   -0.3096    0.0000 O   0  0  0  0  0  0  0  0  0  0  0  0
   -2.3851    0.1066    0.0000 C   0  0  0  0  0  0  0  0  0  0  0  0
   -2.7452    1.5627    0.0000 C   0  0  0  0  0  0  0  0  0  0  0  0
   -1.6642    2.6026    0.0000 O   0  0  0  0  0  0  0  0  0  0  0  0
   -4.1863    1.9789    0.0000 C   0  0  0  0  0  0  0  0  0  0  0  0
   -4.5464    3.4350    0.0000 O   0  0  0  0  0  0  0  0  0  0  0  0
   -5.2673    0.9389    0.0000 C   0  0  0  0  0  0  0  0  0  0  0  0
   -6.7084    1.3551    0.0000 N   0  0  0  0  0  0  0  0  0  0  0  0
   -7.7894    0.3152    0.0000 C   0  0  0  0  0  0  0  0  0  0  0  0
   -9.2305    0.7314    0.0000 N   0  0  0  0  0  0  0  0  0  0  0  0
   -7.4292   -1.1410    0.0000 N   0  0  0  0  0  0  0  0  0  0  0  0
   -4.9071   -0.5172    0.0000 C   0  0  0  0  0  0  0  0  0  0  0  0
   -5.9881   -1.5571    0.0000 O   0  0  0  0  0  0  0  0  0  0  0  0
   -3.4660   -0.9334    0.0000 C   0  0  0  0  0  0  0  0  0  0  0  0
   -3.1059   -2.3895    0.0000 N   0  0  0  0  0  0  0  0  0  0  0  0
   -4.1869   -3.4295    0.0000 C   0  0  0  0  0  0  0  0  0  0  0  0
   -3.8268   -4.8856    0.0000 N   0  0  0  0  0  0  0  0  0  0  0  0
   -5.6280   -3.0133    0.0000 N   0  0  0  0  0  0  0  0  0  0  0  0
   -0.0689    2.2161    0.0000 O   0  0  0  0  0  0  0  0  0  0  0  0
    1.2805    2.8711    0.0000 C   0  0  0  0  0  0  0  0  0  0  0  0
    1.5438    4.3478    0.0000 C   0  0  0  0  0  0  0  0  0  0  0  0
    2.3205    1.7901    0.0000 C   0  0  0  0  0  0  0  0  0  0  0  0
    3.5624    0.9490    0.0000 O   0  0  0  0  0  0  0  0  0  0  0  0
    3.2868    2.9374    0.0000 C   0  0  0  0  0  0  0  0  0  0  0  0
    2.7765    4.3479    0.0000 O   0  0  0  0  0  0  0  0  0  0  0  0
    4.6060    0.2521    0.0000 O   0  0  0  0  0  0  0  0  0  0  0  0
    6.1022    0.1447    0.0000 C   0  0  0  0  0  0  0  0  0  0  0  0
    6.9433    1.3866    0.0000 C   0  0  0  0  0  0  0  0  0  0  0  0
    6.2883    2.7361    0.0000 O   0  0  0  0  0  0  0  0  0  0  0  0
    6.7572   -1.2048    0.0000 C   0  0  0  0  0  0  0  0  0  0  0  0
    8.2533   -1.3122    0.0000 O   0  0  0  0  0  0  0  0  0  0  0  0
    5.9160   -2.4467    0.0000 C   0  0  0  0  0  0  0  0  0  0  0  0
    6.5710   -3.7962    0.0000 O   0  0  0  0  0  0  0  0  0  0  0  0
  1  2  1  0
  2  3  1  0
  3  4  1  0
  4  5  1  0
  5  6  1  0
  6  7  1  0
  7  8  1  0
  8  9  1  0
  9 10  1  0
 10 11  1  0
 10 12  1  0
 12 13  1  0
 12 14  1  0
 14 15  1  0
 15 16  2  0
 16 17  1  0
 16 18  1  0
 14 19  1  0
 19 20  1  0
 19 21  1  0
 21 22  1  0
 22 23  2  0
 23 24  1  0
 23 25  1  0
  7 26  1  0
 26 27  1  0
 27 28  1  0
 27 29  1  0
 29 30  1  0
 29 31  1  0
 31 32  2  0
  4 33  1  0
 33 34  1  0
 34 35  1  0
 35 36  1  0
 34 37  1  0
 37 38  1  0
 37 39  1  0
 39 40  1  0
 39  3  1  0
 29  6  1  0
 21  9  1  0
M  END
> <Identifier>
19649.0

> <DILI>
0

$$$$

     RDKit          2D

 21 22  0  0  0  0  0  0  0  0999 V2000
   -5.1999    1.1788    0.0000 C   0  0  0  0  0  0  0  0  0  0  0  0
   -4.1695    0.0887    0.0000 O   0  0  0  0  0  0  0  0  0  0  0  0
   -2.7103    0.4360    0.0000 C   0  0  0  0  0  0  0  0  0  0  0  0
   -2.2814    1.8733    0.0000 C   0  0  0  0  0  0  0  0  0  0  0  0
   -0.8222    2.2206    0.0000 C   0  0  0  0  0  0  0  0  0  0  0  0
   -0.3933    3.6580    0.0000 O   0  0  0  0  0  0  0  0  0  0  0  0
    0.2082    1.1305    0.0000 C   0  0  0  0  0  0  0  0  0  0  0  0
    1.6674    1.4778    0.0000 C   0  0  0  0  0  0  0  0  0  0  0  0
    2.0963    2.9152    0.0000 O   0  0  0  0  0  0  0  0  0  0  0  0
    2.6978    0.3877    0.0000 C   0  0  0  0  0  0  0  0  0  0  0  0
    2.2690   -1.0497    0.0000 C   0  0  0  0  0  0  0  0  0  0  0  0
    3.2993   -2.1398    0.0000 C   0  0  0  0  0  0  0  0  0  0  0  0
    4.7586   -1.7925    0.0000 C   0  0  0  0  0  0  0  0  0  0  0  0
    5.1874   -0.3551    0.0000 C   0  0  0  0  0  0  0  0  0  0  0  0
    4.1571    0.7350    0.0000 C   0  0  0  0  0  0  0  0  0  0  0  0
   -0.2207   -0.3069    0.0000 C   0  0  0  0  0  0  0  0  0  0  0  0
   -1.6799   -0.6541    0.0000 C   0  0  0  0  0  0  0  0  0  0  0  0
   -2.1088   -2.0915    0.0000 S   0  0  0  0  0  0  0  0  0  0  0  0
   -0.6714   -2.5204    0.0000 O   0  0  0  0  0  0  0  0  0  0  0  0
   -3.5462   -1.6627    0.0000 O   0  0  0  0  0  0  0  0  0  0  0  0
   -2.5376   -3.5289    0.0000 O   0  0  0  0  0  0  0  0  0  0  0  0
  1  2  1  0
  2  3  1  0
  3  4  2  0
  4  5  1  0
  5  6  1  0
  5  7  2  0
  7  8  1  0
  8  9  2  0
  8 10  1  0
 10 11  2  0
 11 12  1  0
 12 13  2  0
 13 14  1  0
 14 15  2  0
  7 16  1  0
 16 17  2  0
 17 18  1  0
 18 19  2  0
 18 20  2  0
 18 21  1  0
 17  3  1  0
 15 10  1  0
M  END
> <Identifier>
19988.0

> <DILI>
0

$$$$

     RDKit          2D

 28 31  0  0  0  0  0  0  0  0999 V2000
   -4.6059   -2.2159    0.0000 C   0  0  0  0  0  0  0  0  0  0  0  0
   -3.2864   -1.5026    0.0000 C   0  0  0  0  0  0  0  0  0  0  0  0
   -1.9337   -2.1508    0.0000 C   0  0  0  0  0  0  0  0  0  0  0  0
   -0.8991   -1.0647    0.0000 C   0  0  0  0  0  0  0  0  0  0  0  0
    0.6003   -1.1067    0.0000 C   0  0  0  0  0  0  0  0  0  0  0  0
    1.3136   -2.4262    0.0000 C   0  0  0  0  0  0  0  0  0  0  0  0
    2.8130   -2.4682    0.0000 C   0  0  0  0  0  0  0  0  0  0  0  0
    3.5991   -1.1907    0.0000 C   0  0  0  0  0  0  0  0  0  0  0  0
    5.0985   -1.2327    0.0000 C   0  0  0  0  0  0  0  0  0  0  0  0
    5.8846    0.0448    0.0000 C   0  0  0  0  0  0  0  0  0  0  0  0
    7.3840    0.0028    0.0000 O   0  0  0  0  0  0  0  0  0  0  0  0
    5.1713    1.3643    0.0000 C   0  0  0  0  0  0  0  0  0  0  0  0
    3.6719    1.4063    0.0000 C   0  0  0  0  0  0  0  0  0  0  0  0
    2.8858    0.1288    0.0000 C   0  0  0  0  0  0  0  0  0  0  0  0
    2.1724    1.4484    0.0000 C   0  0  0  0  0  0  0  0  0  0  0  0
    1.3864    0.1708    0.0000 C   0  0  0  0  0  0  0  0  0  0  0  0
   -0.1131    0.2128    0.0000 Cl  0  0  0  0  0  0  0  0  0  0  0  0
    0.6730    1.4904    0.0000 C   0  0  0  0  0  0  0  0  0  0  0  0
    1.4591    2.7679    0.0000 O   0  0  0  0  0  0  0  0  0  0  0  0
   -0.8264    1.5324    0.0000 C   0  0  0  0  0  0  0  0  0  0  0  0
   -1.6125    0.2549    0.0000 C   0  0  0  0  0  0  0  0  0  0  0  0
   -2.3026    1.5867    0.0000 C   0  0  0  0  0  0  0  0  0  0  0  0
   -3.0878   -0.0158    0.0000 C   0  0  0  0  0  0  0  0  0  0  0  0
   -3.3842    1.4546    0.0000 O   0  0  0  0  0  0  0  0  0  0  0  0
   -4.5873    0.0262    0.0000 C   0  0  0  0  0  0  0  0  0  0  0  0
   -5.3734   -1.2513    0.0000 O   0  0  0  0  0  0  0  0  0  0  0  0
   -5.3006    1.3458    0.0000 C   0  0  0  0  0  0  0  0  0  0  0  0
   -6.8000    1.3878    0.0000 O   0  0  0  0  0  0  0  0  0  0  0  0
  1  2  1  0
  2  3  1  0
  3  4  1  0
  4  5  1  0
  5  6  1  0
  6  7  1  0
  7  8  1  0
  8  9  2  0
  9 10  1  0
 10 11  2  0
 10 12  1  0
 12 13  2  0
 13 14  1  0
 14 15  1  0
 14 16  1  0
 16 17  1  0
 16 18  1  0
 18 19  1  0
 18 20  1  0
 20 21  1  0
 21 22  1  0
 21 23  1  0
 23 24  1  0
 23 25  1  0
 25 26  2  0
 25 27  1  0
 27 28  1  0
 23  2  1  0
 21  4  1  0
 16  5  1  0
 14  8  1  0
M  END
> <Identifier>
20469.0

> <DILI>
0

$$$$

     RDKit          2D

 21 23  0  0  0  0  0  0  0  0999 V2000
   -5.5035   -2.9159    0.0000 C   0  0  0  0  0  0  0  0  0  0  0  0
   -4.4365   -1.8616    0.0000 N   0  0  0  0  0  0  0  0  0  0  0  0
   -4.8160   -0.4105    0.0000 C   0  0  0  0  0  0  0  0  0  0  0  0
   -2.9899   -2.2586    0.0000 C   0  0  0  0  0  0  0  0  0  0  0  0
   -1.9229   -1.2043    0.0000 C   0  0  0  0  0  0  0  0  0  0  0  0
   -0.4764   -1.6012    0.0000 C   0  0  0  0  0  0  0  0  0  0  0  0
    0.5906   -0.5469    0.0000 C   0  0  0  0  0  0  0  0  0  0  0  0
    2.0371   -0.9439    0.0000 C   0  0  0  0  0  0  0  0  0  0  0  0
    2.4167   -2.3950    0.0000 C   0  0  0  0  0  0  0  0  0  0  0  0
    3.8632   -2.7920    0.0000 C   0  0  0  0  0  0  0  0  0  0  0  0
    4.9302   -1.7377    0.0000 C   0  0  0  0  0  0  0  0  0  0  0  0
    4.5507   -0.2865    0.0000 C   0  0  0  0  0  0  0  0  0  0  0  0
    3.1042    0.1104    0.0000 C   0  0  0  0  0  0  0  0  0  0  0  0
    2.7246    1.5616    0.0000 N   0  0  0  0  0  0  0  0  0  0  0  0
    1.2781    1.9585    0.0000 C   0  0  0  0  0  0  0  0  0  0  0  0
    0.8986    3.4097    0.0000 C   0  0  0  0  0  0  0  0  0  0  0  0
   -0.5480    3.8066    0.0000 C   0  0  0  0  0  0  0  0  0  0  0  0
   -1.6150    2.7524    0.0000 C   0  0  0  0  0  0  0  0  0  0  0  0
   -3.0615    3.1493    0.0000 Cl  0  0  0  0  0  0  0  0  0  0  0  0
   -1.2354    1.3012    0.0000 C   0  0  0  0  0  0  0  0  0  0  0  0
    0.2111    0.9043    0.0000 C   0  0  0  0  0  0  0  0  0  0  0  0
  1  2  1  0
  2  3  1  0
  2  4  1  0
  4  5  1  0
  5  6  1  0
  6  7  1  0
  7  8  1  0
  8  9  2  0
  9 10  1  0
 10 11  2  0
 11 12  1  0
 12 13  2  0
 13 14  1  0
 14 15  1  0
 15 16  2  0
 16 17  1  0
 17 18  2  0
 18 19  1  0
 18 20  1  0
 20 21  2  0
 21  7  1  0
 13  8  1  0
 21 15  1  0
M  END
> <Identifier>
21382.0

> <DILI>
1

$$$$

     RDKit          2D

 20 22  0  0  0  0  0  0  0  0999 V2000
   -3.1137   -3.3832    0.0000 C   0  0  0  0  0  0  0  0  0  0  0  0
   -2.0636   -2.3121    0.0000 C   0  0  0  0  0  0  0  0  0  0  0  0
   -2.4662   -0.8671    0.0000 C   0  0  0  0  0  0  0  0  0  0  0  0
   -3.8718   -0.3435    0.0000 C   0  0  0  0  0  0  0  0  0  0  0  0
   -5.1217   -1.1729    0.0000 C   0  0  0  0  0  0  0  0  0  0  0  0
   -3.8082    1.1552    0.0000 N   0  0  0  0  0  0  0  0  0  0  0  0
   -2.3632    1.5577    0.0000 C   0  0  0  0  0  0  0  0  0  0  0  0
   -1.5338    0.3079    0.0000 C   0  0  0  0  0  0  0  0  0  0  0  0
   -0.0367    0.4012    0.0000 C   0  0  0  0  0  0  0  0  0  0  0  0
    0.7927   -0.8486    0.0000 O   0  0  0  0  0  0  0  0  0  0  0  0
    0.6310    1.7444    0.0000 C   0  0  0  0  0  0  0  0  0  0  0  0
    2.1281    1.8377    0.0000 C   0  0  0  0  0  0  0  0  0  0  0  0
    2.9575    0.5879    0.0000 N   0  0  0  0  0  0  0  0  0  0  0  0
    2.2898   -0.7553    0.0000 C   0  0  0  0  0  0  0  0  0  0  0  0
    3.1191   -2.0052    0.0000 C   0  0  0  0  0  0  0  0  0  0  0  0
    4.6162   -1.9118    0.0000 O   0  0  0  0  0  0  0  0  0  0  0  0
    5.2839   -0.5686    0.0000 C   0  0  0  0  0  0  0  0  0  0  0  0
    4.4546    0.6812    0.0000 C   0  0  0  0  0  0  0  0  0  0  0  0
   -0.1984    2.9943    0.0000 C   0  0  0  0  0  0  0  0  0  0  0  0
   -1.6955    2.9009    0.0000 C   0  0  0  0  0  0  0  0  0  0  0  0
  1  2  1  0
  2  3  1  0
  3  4  2  0
  4  5  1  0
  4  6  1  0
  6  7  1  0
  7  8  2  0
  8  9  1  0
  9 10  2  0
  9 11  1  0
 11 12  1  0
 12 13  1  0
 13 14  1  0
 14 15  1  0
 15 16  1  0
 16 17  1  0
 17 18  1  0
 11 19  1  0
 19 20  1  0
  8  3  1  0
 18 13  1  0
 20  7  1  0
M  END
> <Identifier>
23897.0

> <DILI>
0

$$$$

     RDKit          2D

 15 16  0  0  0  0  0  0  0  0999 V2000
   -5.1892   -0.4369    0.0000 N   0  0  0  0  0  0  0  0  0  0  0  0
   -3.7130   -0.1709    0.0000 C   0  0  0  0  0  0  0  0  0  0  0  0
   -3.2052    1.2406    0.0000 C   0  0  0  0  0  0  0  0  0  0  0  0
   -1.7290    1.5065    0.0000 C   0  0  0  0  0  0  0  0  0  0  0  0
   -0.7605    0.3611    0.0000 N   0  0  0  0  0  0  0  0  0  0  0  0
    0.7157    0.6271    0.0000 C   0  0  0  0  0  0  0  0  0  0  0  0
    1.3682    1.9777    0.0000 C   0  0  0  0  0  0  0  0  0  0  0  0
    2.8544    1.7745    0.0000 C   0  0  0  0  0  0  0  0  0  0  0  0
    3.1204    0.2982    0.0000 C   0  0  0  0  0  0  0  0  0  0  0  0
    4.4710   -0.3543    0.0000 C   0  0  0  0  0  0  0  0  0  0  0  0
    4.5812   -1.8502    0.0000 O   0  0  0  0  0  0  0  0  0  0  0  0
    1.7986   -0.4109    0.0000 O   0  0  0  0  0  0  0  0  0  0  0  0
   -1.2683   -1.0504    0.0000 C   0  0  0  0  0  0  0  0  0  0  0  0
   -0.2998   -2.1958    0.0000 O   0  0  0  0  0  0  0  0  0  0  0  0
   -2.7445   -1.3163    0.0000 N   0  0  0  0  0  0  0  0  0  0  0  0
  1  2  1  0
  2  3  1  0
  3  4  2  0
  4  5  1  0
  5  6  1  0
  6  7  1  0
  7  8  1  0
  8  9  1  0
  9 10  1  0
 10 11  1  0
  9 12  1  0
  5 13  1  0
 13 14  2  0
 13 15  1  0
 15  2  2  0
 12  6  1  0
M  END
> <Identifier>
24066.0

> <DILI>
1

$$$$

     RDKit          2D

 13 12  0  0  0  0  0  0  0  0999 V2000
   -3.5490    0.4502    0.0000 C   0  0  0  0  0  0  0  0  0  0  0  0
   -2.2500   -0.2998    0.0000 Si  0  0  0  0  0  4  0  0  0  0  0  0
   -0.9510   -1.0498    0.0000 C   0  0  0  0  0  0  0  0  0  0  0  0
   -3.0000   -1.5988    0.0000 C   0  0  0  0  0  0  0  0  0  0  0  0
   -1.5000    0.9993    0.0000 O   0  0  0  0  0  0  0  0  0  0  0  0
   -0.0000    0.9993    0.0000 Si  0  0  0  0  0  4  0  0  0  0  0  0
   -0.0000   -0.5007    0.0000 C   0  0  0  0  0  0  0  0  0  0  0  0
   -0.0000    2.4993    0.0000 C   0  0  0  0  0  0  0  0  0  0  0  0
    1.5000    0.9993    0.0000 O   0  0  0  0  0  0  0  0  0  0  0  0
    2.2500   -0.2998    0.0000 Si  0  0  0  0  0  4  0  0  0  0  0  0
    3.5490    0.4502    0.0000 C   0  0  0  0  0  0  0  0  0  0  0  0
    0.9510   -1.0498    0.0000 C   0  0  0  0  0  0  0  0  0  0  0  0
    3.0000   -1.5988    0.0000 C   0  0  0  0  0  0  0  0  0  0  0  0
  1  2  1  0
  2  3  1  0
  2  4  1  0
  2  5  1  0
  5  6  1  0
  6  7  1  0
  6  8  1  0
  6  9  1  0
  9 10  1  0
 10 11  1  0
 10 12  1  0
 10 13  1  0
M  END
> <Identifier>
24705.0

> <DILI>
0

$$$$

     RDKit          2D

 14 15  0  0  0  0  0  0  0  0999 V2000
   -5.5573    0.6348    0.0000 C   0  0  0  0  0  0  0  0  0  0  0  0
   -4.4987   -0.4279    0.0000 O   0  0  0  0  0  0  0  0  0  0  0  0
   -3.0491   -0.0425    0.0000 C   0  0  0  0  0  0  0  0  0  0  0  0
   -2.6580    1.4056    0.0000 O   0  0  0  0  0  0  0  0  0  0  0  0
   -1.9905   -1.1053    0.0000 N   0  0  0  0  0  0  0  0  0  0  0  0
   -0.5409   -0.7199    0.0000 C   0  0  0  0  0  0  0  0  0  0  0  0
    0.6230   -1.6661    0.0000 N   0  0  0  0  0  0  0  0  0  0  0  0
    1.8826   -0.8516    0.0000 C   0  0  0  0  0  0  0  0  0  0  0  0
    3.3307   -1.2427    0.0000 C   0  0  0  0  0  0  0  0  0  0  0  0
    4.3935   -0.1841    0.0000 C   0  0  0  0  0  0  0  0  0  0  0  0
    4.0081    1.2656    0.0000 C   0  0  0  0  0  0  0  0  0  0  0  0
    2.5599    1.6566    0.0000 C   0  0  0  0  0  0  0  0  0  0  0  0
    1.4972    0.5980    0.0000 C   0  0  0  0  0  0  0  0  0  0  0  0
   -0.0006    0.6795    0.0000 N   0  0  0  0  0  0  0  0  0  0  0  0
  1  2  1  0
  2  3  1  0
  3  4  2  0
  3  5  1  0
  5  6  1  0
  6  7  2  0
  7  8  1  0
  8  9  2  0
  9 10  1  0
 10 11  2  0
 11 12  1  0
 12 13  2  0
 13 14  1  0
 14  6  1  0
 13  8  1  0
M  END
> <Identifier>
25429.0

> <DILI>
1

$$$$

     RDKit          2D

  2  0  0  0  0  0  0  0  0  0999 V2000
    1.0000    0.0000    0.0000 Cl  0  0  0  0  0 15  0  0  0  0  0  0
    0.0000    0.0000    0.0000 N   0  0  0  0  0  4  0  0  0  0  0  0
M  CHG  2   1  -1   2   1
M  END
> <Identifier>
25517.0

> <DILI>
0

$$$$

     RDKit          2D

 14 14  0  0  0  0  0  0  0  0999 V2000
   -1.4109    3.7463    0.0000 C   0  0  0  0  0  0  0  0  0  0  0  0
   -1.0826    2.2827    0.0000 C   0  0  0  0  0  0  0  0  0  0  0  0
   -0.7543    0.8191    0.0000 C   0  0  0  0  0  0  0  0  0  0  0  0
   -1.8577   -0.1971    0.0000 N   0  0  0  0  0  0  0  0  0  0  0  0
   -3.2894    0.2504    0.0000 C   0  0  0  0  0  0  0  0  0  0  0  0
   -1.5294   -1.6607    0.0000 C   0  0  0  0  0  0  0  0  0  0  0  0
   -2.6328   -2.6768    0.0000 C   0  0  0  0  0  0  0  0  0  0  0  0
   -0.0977   -2.1082    0.0000 C   0  0  0  0  0  0  0  0  0  0  0  0
    1.0057   -1.0921    0.0000 C   0  0  0  0  0  0  0  0  0  0  0  0
    0.6774    0.3716    0.0000 C   0  0  0  0  0  0  0  0  0  0  0  0
    1.7808    1.3877    0.0000 C   0  0  0  0  0  0  0  0  0  0  0  0
    3.2125    0.9402    0.0000 C   0  0  0  0  0  0  0  0  0  0  0  0
    3.5408   -0.5234    0.0000 C   0  0  0  0  0  0  0  0  0  0  0  0
    2.4374   -1.5396    0.0000 C   0  0  0  0  0  0  0  0  0  0  0  0
  1  2  3  0
  2  3  1  0
  3  4  1  0
  4  5  1  0
  4  6  1  0
  6  7  1  0
  6  8  1  0
  8  9  1  0
  9 10  2  0
 10 11  1  0
 11 12  2  0
 12 13  1  0
 13 14  2  0
 14  9  1  0
M  END
> <Identifier>
26757.0

> <DILI>
0

$$$$

     RDKit          2D

 11 11  0  0  0  0  0  0  0  0999 V2000
   -3.6680    0.0911    0.0000 C   0  0  0  0  0  0  0  0  0  0  0  0
   -2.2095    0.4412    0.0000 C   0  0  0  0  0  0  0  0  0  0  0  0
   -1.7834    1.8794    0.0000 N   0  0  0  0  0  0  0  0  0  0  0  0
   -1.1770   -0.6469    0.0000 C   0  0  0  0  0  0  0  0  0  0  0  0
   -1.6031   -2.0851    0.0000 O   0  0  0  0  0  0  0  0  0  0  0  0
    0.2816   -0.2968    0.0000 C   0  0  0  0  0  0  0  0  0  0  0  0
    0.7077    1.1415    0.0000 C   0  0  0  0  0  0  0  0  0  0  0  0
    2.1662    1.4916    0.0000 C   0  0  0  0  0  0  0  0  0  0  0  0
    3.1987    0.4035    0.0000 C   0  0  0  0  0  0  0  0  0  0  0  0
    2.7726   -1.0347    0.0000 C   0  0  0  0  0  0  0  0  0  0  0  0
    1.3141   -1.3849    0.0000 C   0  0  0  0  0  0  0  0  0  0  0  0
  1  2  1  0
  2  3  1  0
  2  4  1  0
  4  5  1  0
  4  6  1  0
  6  7  2  0
  7  8  1  0
  8  9  2  0
  9 10  1  0
 10 11  2  0
 11  6  1  0
M  END
> <Identifier>
26934.0

> <DILI>
0

$$$$

     RDKit          2D

 24 26  0  0  0  0  0  0  0  0999 V2000
   -6.2383    1.7157    0.0000 C   0  0  0  0  0  0  0  0  0  0  0  0
   -5.8675    0.2622    0.0000 N   0  0  0  0  0  0  0  0  0  0  0  0
   -6.8254   -0.8920    0.0000 C   0  0  0  0  0  0  0  0  0  0  0  0
   -6.0237   -2.1598    0.0000 C   0  0  0  0  0  0  0  0  0  0  0  0
   -4.5702   -1.7890    0.0000 C   0  0  0  0  0  0  0  0  0  0  0  0
   -4.4737   -0.2921    0.0000 C   0  0  0  0  0  0  0  0  0  0  0  0
   -3.2059    0.5096    0.0000 C   0  0  0  0  0  0  0  0  0  0  0  0
   -1.8777   -0.1874    0.0000 C   0  0  0  0  0  0  0  0  0  0  0  0
   -0.6100    0.6144    0.0000 O   0  0  0  0  0  0  0  0  0  0  0  0
    0.7182   -0.0826    0.0000 C   0  0  0  0  0  0  0  0  0  0  0  0
    0.0212   -1.4109    0.0000 C   0  0  0  0  0  0  0  0  0  0  0  0
    1.4153    1.2456    0.0000 C   0  0  0  0  0  0  0  0  0  0  0  0
    2.9140    1.3061    0.0000 C   0  0  0  0  0  0  0  0  0  0  0  0
    3.6111    2.6343    0.0000 C   0  0  0  0  0  0  0  0  0  0  0  0
    2.8093    3.9020    0.0000 C   0  0  0  0  0  0  0  0  0  0  0  0
    1.3105    3.8415    0.0000 C   0  0  0  0  0  0  0  0  0  0  0  0
    0.6135    2.5133    0.0000 C   0  0  0  0  0  0  0  0  0  0  0  0
    2.0465   -0.7797    0.0000 C   0  0  0  0  0  0  0  0  0  0  0  0
    2.1069   -2.2784    0.0000 C   0  0  0  0  0  0  0  0  0  0  0  0
    3.4352   -2.9755    0.0000 C   0  0  0  0  0  0  0  0  0  0  0  0
    4.7029   -2.1737    0.0000 C   0  0  0  0  0  0  0  0  0  0  0  0
    6.0311   -2.8707    0.0000 Cl  0  0  0  0  0  0  0  0  0  0  0  0
    4.6424   -0.6749    0.0000 C   0  0  0  0  0  0  0  0  0  0  0  0
    3.3142    0.0221    0.0000 C   0  0  0  0  0  0  0  0  0  0  0  0
  1  2  1  0
  2  3  1  0
  3  4  1  0
  4  5  1  0
  5  6  1  0
  6  7  1  0
  7  8  1  0
  8  9  1  0
  9 10  1  0
 10 11  1  0
 10 12  1  0
 12 13  2  0
 13 14  1  0
 14 15  2  0
 15 16  1  0
 16 17  2  0
 10 18  1  0
 18 19  2  0
 19 20  1  0
 20 21  2  0
 21 22  1  0
 21 23  1  0
 23 24  2  0
  6  2  1  0
 17 12  1  0
 24 18  1  0
M  END
> <Identifier>
26987.0

> <DILI>
0

$$$$

     RDKit          2D

 43 46  0  0  0  0  0  0  0  0999 V2000
    8.0823   -2.9138    0.0000 C   0  0  0  0  0  0  0  0  0  0  0  0
    6.6101   -2.6266    0.0000 C   0  0  0  0  0  0  0  0  0  0  0  0
    5.6252   -3.7580    0.0000 O   0  0  0  0  0  0  0  0  0  0  0  0
    6.1227   -1.2080    0.0000 O   0  0  0  0  0  0  0  0  0  0  0  0
    4.6505   -0.9207    0.0000 C   0  0  0  0  0  0  0  0  0  0  0  0
    3.6656   -2.0521    0.0000 C   0  0  0  0  0  0  0  0  0  0  0  0
    2.1934   -1.7649    0.0000 C   0  0  0  0  0  0  0  0  0  0  0  0
    1.2085   -2.8963    0.0000 C   0  0  0  0  0  0  0  0  0  0  0  0
   -0.2637   -2.6091    0.0000 C   0  0  0  0  0  0  0  0  0  0  0  0
   -0.7511   -1.1905    0.0000 C   0  0  0  0  0  0  0  0  0  0  0  0
    0.2337   -0.0591    0.0000 C   0  0  0  0  0  0  0  0  0  0  0  0
   -0.2537    1.3595    0.0000 C   0  0  0  0  0  0  0  0  0  0  0  0
   -1.7259    1.6467    0.0000 C   0  0  0  0  0  0  0  0  0  0  0  0
   -2.7108    0.5153    0.0000 C   0  0  0  0  0  0  0  0  0  0  0  0
   -3.3438    1.8752    0.0000 C   0  0  0  0  0  0  0  0  0  0  0  0
   -2.2234   -0.9033    0.0000 C   0  0  0  0  0  0  0  0  0  0  0  0
   -3.4219   -1.8052    0.0000 C   0  0  0  0  0  0  0  0  0  0  0  0
   -4.6501   -0.9440    0.0000 C   0  0  0  0  0  0  0  0  0  0  0  0
   -6.0687   -1.4314    0.0000 N   0  0  0  0  0  4  0  0  0  0  0  0
   -5.3424   -2.7438    0.0000 C   0  0  0  0  0  0  0  0  0  0  0  0
   -6.3023    0.0503    0.0000 C   0  0  0  0  0  0  0  0  0  0  0  0
   -7.7023    0.5888    0.0000 C   0  0  0  0  0  0  0  0  0  0  0  0
   -8.8687   -0.3544    0.0000 C   0  0  0  0  0  0  0  0  0  0  0  0
   -8.6351   -1.8360    0.0000 C   0  0  0  0  0  0  0  0  0  0  0  0
   -7.2351   -2.3746    0.0000 C   0  0  0  0  0  0  0  0  0  0  0  0
   -4.2105    0.4902    0.0000 C   0  0  0  0  0  0  0  0  0  0  0  0
   -5.1125    1.6887    0.0000 O   0  0  0  0  0  0  0  0  0  0  0  0
   -4.5254    3.0691    0.0000 C   0  0  0  0  0  0  0  0  0  0  0  0
   -5.4273    4.2677    0.0000 C   0  0  0  0  0  0  0  0  0  0  0  0
   -3.0365    3.2509    0.0000 O   0  0  0  0  0  0  0  0  0  0  0  0
    1.7060   -0.3463    0.0000 C   0  0  0  0  0  0  0  0  0  0  0  0
    1.2186    1.0723    0.0000 C   0  0  0  0  0  0  0  0  0  0  0  0
    2.6908    0.7851    0.0000 C   0  0  0  0  0  0  0  0  0  0  0  0
    4.1631    0.4979    0.0000 C   0  0  0  0  0  0  0  0  0  0  0  0
    5.1479    1.6293    0.0000 N   0  0  0  0  0  4  0  0  0  0  0  0
    3.8627    2.4027    0.0000 C   0  0  0  0  0  0  0  0  0  0  0  0
    6.0911    0.4629    0.0000 C   0  0  0  0  0  0  0  0  0  0  0  0
    7.5728    0.6965    0.0000 C   0  0  0  0  0  0  0  0  0  0  0  0
    8.1113    2.0965    0.0000 C   0  0  0  0  0  0  0  0  0  0  0  0
    7.1681    3.2629    0.0000 C   0  0  0  0  0  0  0  0  0  0  0  0
    5.6864    3.0293    0.0000 C   0  0  0  0  0  0  0  0  0  0  0  0
    0.0000    5.2677    0.0000 Br  0  0  0  0  0 15  0  0  0  0  0  0
    0.0000    6.2677    0.0000 Br  0  0  0  0  0 15  0  0  0  0  0  0
  1  2  1  0
  2  3  2  0
  2  4  1  0
  4  5  1  0
  5  6  1  0
  6  7  1  0
  7  8  1  0
  8  9  1  0
  9 10  1  0
 10 11  1  0
 11 12  1  0
 12 13  1  0
 13 14  1  0
 14 15  1  0
 14 16  1  0
 16 17  1  0
 17 18  1  0
 18 19  1  0
 19 20  1  0
 19 21  1  0
 21 22  1  0
 22 23  1  0
 23 24  1  0
 24 25  1  0
 18 26  1  0
 26 27  1  0
 27 28  1  0
 28 29  1  0
 28 30  2  0
 11 31  1  0
 31 32  1  0
 31 33  1  0
 33 34  1  0
 34 35  1  0
 35 36  1  0
 35 37  1  0
 37 38  1  0
 38 39  1  0
 39 40  1  0
 40 41  1  0
 34  5  1  0
 41 35  1  0
 31  7  1  0
 16 10  1  0
 25 19  1  0
 26 14  1  0
M  CHG  4  19   1  35   1  42  -1  43  -1
M  END
> <Identifier>
27350.0

> <DILI>
0

$$$$

     RDKit          2D

  1  0  0  0  0  0  0  0  0  0999 V2000
    0.0000    0.0000    0.0000 Li  0  0  0  0  0 15  0  0  0  0  0  0
M  CHG  1   1   1
M  END
> <Identifier>
28486.0

> <DILI>
0

$$$$

     RDKit          2D

 16 17  0  0  0  0  0  0  0  0999 V2000
   -3.1056    2.0390    0.0000 O   0  0  0  0  0  0  0  0  0  0  0  0
   -4.1964    1.0094    0.0000 C   0  0  0  0  0  0  0  0  0  0  0  0
   -5.6335    1.4392    0.0000 O   0  0  0  0  0  0  0  0  0  0  0  0
   -3.8501   -0.4501    0.0000 C   0  0  0  0  0  0  0  0  0  0  0  0
   -2.4130   -0.8800    0.0000 C   0  0  0  0  0  0  0  0  0  0  0  0
   -1.9161   -2.2953    0.0000 C   0  0  0  0  0  0  0  0  0  0  0  0
   -0.4165   -2.2600    0.0000 S   0  0  0  0  0  0  0  0  0  0  0  0
    0.0134   -0.8229    0.0000 C   0  0  0  0  0  0  0  0  0  0  0  0
    1.4287   -0.3260    0.0000 C   0  0  0  0  0  0  0  0  0  0  0  0
    2.5667   -1.3032    0.0000 C   0  0  0  0  0  0  0  0  0  0  0  0
    3.9820   -0.8062    0.0000 C   0  0  0  0  0  0  0  0  0  0  0  0
    4.2592    0.6679    0.0000 C   0  0  0  0  0  0  0  0  0  0  0  0
    5.6745    1.1649    0.0000 Cl  0  0  0  0  0  0  0  0  0  0  0  0
    3.1212    1.6451    0.0000 C   0  0  0  0  0  0  0  0  0  0  0  0
    1.7059    1.1482    0.0000 C   0  0  0  0  0  0  0  0  0  0  0  0
   -1.2206    0.0300    0.0000 N   0  0  0  0  0  0  0  0  0  0  0  0
  1  2  2  0
  2  3  1  0
  2  4  1  0
  4  5  1  0
  5  6  2  0
  6  7  1  0
  7  8  1  0
  8  9  1  0
  9 10  2  0
 10 11  1  0
 11 12  2  0
 12 13  1  0
 12 14  1  0
 14 15  2  0
  8 16  2  0
 16  5  1  0
 15  9  1  0
M  END
> <Identifier>
28858.0

> <DILI>
1

$$$$

     RDKit          2D

 33 36  0  0  0  0  0  0  0  0999 V2000
   -2.6670    6.8839    0.0000 C   0  0  0  0  0  0  0  0  0  0  0  0
   -1.7901    5.6670    0.0000 C   0  0  0  0  0  0  0  0  0  0  0  0
   -0.2977    5.8179    0.0000 O   0  0  0  0  0  0  0  0  0  0  0  0
   -2.4056    4.2990    0.0000 O   0  0  0  0  0  0  0  0  0  0  0  0
   -1.5287    3.0821    0.0000 C   0  0  0  0  0  0  0  0  0  0  0  0
   -0.0363    3.2330    0.0000 C   0  0  0  0  0  0  0  0  0  0  0  0
    0.8406    2.0160    0.0000 C   0  0  0  0  0  0  0  0  0  0  0  0
    0.2251    0.6481    0.0000 C   0  0  0  0  0  0  0  0  0  0  0  0
    1.1020   -0.5689    0.0000 C   0  0  0  0  0  0  0  0  0  0  0  0
   -0.1999   -1.3138    0.0000 C   0  0  0  0  0  0  0  0  0  0  0  0
   -1.4960   -0.5587    0.0000 C   0  0  0  0  0  0  0  0  0  0  0  0
   -2.7980   -1.3036    0.0000 C   0  0  0  0  0  0  0  0  0  0  0  0
   -2.8039   -2.8036    0.0000 C   0  0  0  0  0  0  0  0  0  0  0  0
   -4.1058   -3.5485    0.0000 O   0  0  0  0  0  0  0  0  0  0  0  0
   -5.4019   -2.7934    0.0000 C   0  0  0  0  0  0  0  0  0  0  0  0
   -6.7039   -3.5383    0.0000 C   0  0  0  0  0  0  0  0  0  0  0  0
   -5.3960   -1.2934    0.0000 O   0  0  0  0  0  0  0  0  0  0  0  0
   -1.5078   -3.5586    0.0000 C   0  0  0  0  0  0  0  0  0  0  0  0
   -0.2058   -2.8137    0.0000 C   0  0  0  0  0  0  0  0  0  0  0  0
    1.7068   -1.9416    0.0000 C   0  0  0  0  0  0  0  0  0  0  0  0
    0.9517   -3.2376    0.0000 O   0  0  0  0  0  0  0  0  0  0  0  0
    3.1992   -1.7906    0.0000 N   0  0  0  0  0  0  0  0  0  0  0  0
    4.1985   -2.9093    0.0000 C   0  0  0  0  0  0  0  0  0  0  0  0
    3.7294   -4.3340    0.0000 C   0  0  0  0  0  0  0  0  0  0  0  0
    5.6669   -2.6032    0.0000 O   0  0  0  0  0  0  0  0  0  0  0  0
    3.5168   -0.3246    0.0000 C   0  0  0  0  0  0  0  0  0  0  0  0
    4.8187    0.4203    0.0000 C   0  0  0  0  0  0  0  0  0  0  0  0
    4.8246    1.9203    0.0000 C   0  0  0  0  0  0  0  0  0  0  0  0
    3.5285    2.6753    0.0000 C   0  0  0  0  0  0  0  0  0  0  0  0
    2.2266    1.9304    0.0000 C   0  0  0  0  0  0  0  0  0  0  0  0
    2.2207    0.4305    0.0000 C   0  0  0  0  0  0  0  0  0  0  0  0
   -1.2673    0.4972    0.0000 C   0  0  0  0  0  0  0  0  0  0  0  0
   -2.1442    1.7142    0.0000 C   0  0  0  0  0  0  0  0  0  0  0  0
  1  2  1  0
  2  3  2  0
  2  4  1  0
  4  5  1  0
  5  6  2  0
  6  7  1  0
  7  8  2  0
  8  9  1  0
  9 10  1  0
 10 11  2  0
 11 12  1  0
 12 13  2  0
 13 14  1  0
 14 15  1  0
 15 16  1  0
 15 17  2  0
 13 18  1  0
 18 19  2  0
  9 20  1  0
 20 21  2  0
 20 22  1  0
 22 23  1  0
 23 24  1  0
 23 25  2  0
 22 26  1  0
 26 27  2  0
 27 28  1  0
 28 29  2  0
 29 30  1  0
 30 31  2  0
  8 32  1  0
 32 33  2  0
 33  5  1  0
 31  9  1  0
 19 10  1  0
 31 26  1  0
M  END
> <Identifier>
29321.0

> <DILI>
1

$$$$

     RDKit          2D

 18 18  0  0  0  0  0  0  0  0999 V2000
   -4.6895    1.4679    0.0000 C   0  0  0  0  0  0  0  0  0  0  0  0
   -3.7313    0.3139    0.0000 N   0  0  0  0  0  0  0  0  0  0  0  0
   -4.2516   -1.0930    0.0000 N   0  0  0  0  0  0  0  0  0  0  0  0
   -5.7302   -1.3458    0.0000 O   0  0  0  0  0  0  0  0  0  0  0  0
   -2.2527    0.5667    0.0000 C   0  0  0  0  0  0  0  0  0  0  0  0
   -1.7324    1.9735    0.0000 O   0  0  0  0  0  0  0  0  0  0  0  0
   -1.2945   -0.5874    0.0000 N   0  0  0  0  0  0  0  0  0  0  0  0
    0.1840   -0.3346    0.0000 C   0  0  0  0  0  0  0  0  0  0  0  0
    0.7044    1.0722    0.0000 C   0  0  0  0  0  0  0  0  0  0  0  0
   -0.2538    2.2263    0.0000 O   0  0  0  0  0  0  0  0  0  0  0  0
    2.1829    1.3250    0.0000 O   0  0  0  0  0  0  0  0  0  0  0  0
    3.1411    0.1710    0.0000 C   0  0  0  0  0  0  0  0  0  0  0  0
    4.6197    0.4238    0.0000 C   0  0  0  0  0  0  0  0  0  0  0  0
    5.1400    1.8306    0.0000 O   0  0  0  0  0  0  0  0  0  0  0  0
    2.6208   -1.2359    0.0000 C   0  0  0  0  0  0  0  0  0  0  0  0
    3.5790   -2.3900    0.0000 O   0  0  0  0  0  0  0  0  0  0  0  0
    1.1422   -1.4887    0.0000 C   0  0  0  0  0  0  0  0  0  0  0  0
    0.6219   -2.8955    0.0000 O   0  0  0  0  0  0  0  0  0  0  0  0
  1  2  1  0
  2  3  1  0
  3  4  2  0
  2  5  1  0
  5  6  2  0
  5  7  1  0
  7  8  1  0
  8  9  1  0
  9 10  1  0
  9 11  1  0
 11 12  1  0
 12 13  1  0
 13 14  1  0
 12 15  1  0
 15 16  1  0
 15 17  1  0
 17 18  1  0
 17  8  1  0
M  END
> <Identifier>
29327.0

> <DILI>
1

$$$$

     RDKit          2D

 55 62  0  0  0  0  0  0  0  0999 V2000
   -2.2856    3.6137    0.0000 C   0  0  0  0  0  0  0  0  0  0  0  0
   -3.6873    4.1480    0.0000 C   0  0  0  0  0  0  0  0  0  0  0  0
   -4.8508    3.2012    0.0000 O   0  0  0  0  0  0  0  0  0  0  0  0
   -6.2524    3.7354    0.0000 C   0  0  0  0  0  0  0  0  0  0  0  0
   -7.4159    2.7887    0.0000 O   0  0  0  0  0  0  0  0  0  0  0  0
   -7.1777    1.3077    0.0000 C   0  0  0  0  0  0  0  0  0  0  0  0
   -8.3412    0.3609    0.0000 C   0  0  0  0  0  0  0  0  0  0  0  0
   -9.7428    0.8951    0.0000 O   0  0  0  0  0  0  0  0  0  0  0  0
   -8.1030   -1.1200    0.0000 C   0  0  0  0  0  0  0  0  0  0  0  0
   -6.7013   -1.6542    0.0000 C   0  0  0  0  0  0  0  0  0  0  0  0
   -6.4632   -3.1352    0.0000 O   0  0  0  0  0  0  0  0  0  0  0  0
   -5.0615   -3.6694    0.0000 C   0  0  0  0  0  0  0  0  0  0  0  0
   -4.8233   -5.1504    0.0000 C   0  0  0  0  0  0  0  0  0  0  0  0
   -5.9868   -6.0972    0.0000 O   0  0  0  0  0  0  0  0  0  0  0  0
   -3.4217   -5.6846    0.0000 C   0  0  0  0  0  0  0  0  0  0  0  0
   -2.2582   -4.7379    0.0000 C   0  0  0  0  0  0  0  0  0  0  0  0
   -0.8566   -5.2721    0.0000 O   0  0  0  0  0  0  0  0  0  0  0  0
    0.3069   -4.3253    0.0000 C   0  0  0  0  0  0  0  0  0  0  0  0
    1.7085   -4.8595    0.0000 C   0  0  0  0  0  0  0  0  0  0  0  0
    2.8720   -3.9128    0.0000 C   0  0  0  0  0  0  0  0  0  0  0  0
    2.6338   -2.4318    0.0000 C   0  0  0  0  0  0  0  0  0  0  0  0
    4.0355   -2.9660    0.0000 C   0  0  0  0  0  0  0  0  0  0  0  0
    1.2322   -1.8976    0.0000 C   0  0  0  0  0  0  0  0  0  0  0  0
    0.9940   -0.4166    0.0000 C   0  0  0  0  0  0  0  0  0  0  0  0
    2.1575    0.5301    0.0000 C   0  0  0  0  0  0  0  0  0  0  0  0
    3.5591   -0.0041    0.0000 C   0  0  0  0  0  0  0  0  0  0  0  0
    3.7973   -1.4851    0.0000 C   0  0  0  0  0  0  0  0  0  0  0  0
    5.1989   -2.0193    0.0000 C   0  0  0  0  0  0  0  0  0  0  0  0
    6.3624   -1.0725    0.0000 C   0  0  0  0  0  0  0  0  0  0  0  0
    7.7641   -1.6067    0.0000 O   0  0  0  0  0  0  0  0  0  0  0  0
    6.1242    0.4084    0.0000 C   0  0  0  0  0  0  0  0  0  0  0  0
    7.5740    0.0237    0.0000 C   0  0  0  0  0  0  0  0  0  0  0  0
    7.0654    1.5764    0.0000 C   0  0  0  0  0  0  0  0  0  0  0  0
    8.5636    1.5015    0.0000 C   0  0  0  0  0  0  0  0  0  0  0  0
    9.5048    2.6694    0.0000 C   0  0  0  0  0  0  0  0  0  0  0  0
   10.9064    2.1352    0.0000 C   0  0  0  0  0  0  0  0  0  0  0  0
   12.1625    2.9552    0.0000 O   0  0  0  0  0  0  0  0  0  0  0  0
   10.8315    0.6371    0.0000 O   0  0  0  0  0  0  0  0  0  0  0  0
    9.3835    0.2454    0.0000 C   0  0  0  0  0  0  0  0  0  0  0  0
    6.2455    2.8325    0.0000 C   0  0  0  0  0  0  0  0  0  0  0  0
    4.7975    2.4408    0.0000 C   0  0  0  0  0  0  0  0  0  0  0  0
    4.7226    0.9427    0.0000 C   0  0  0  0  0  0  0  0  0  0  0  0
    3.3845    1.6205    0.0000 O   0  0  0  0  0  0  0  0  0  0  0  0
    0.0687   -2.8444    0.0000 C   0  0  0  0  0  0  0  0  0  0  0  0
   -2.4964   -3.2569    0.0000 O   0  0  0  0  0  0  0  0  0  0  0  0
   -3.8980   -2.7227    0.0000 C   0  0  0  0  0  0  0  0  0  0  0  0
   -4.1362   -1.2417    0.0000 C   0  0  0  0  0  0  0  0  0  0  0  0
   -5.5379   -0.7075    0.0000 O   0  0  0  0  0  0  0  0  0  0  0  0
   -5.7761    0.7735    0.0000 C   0  0  0  0  0  0  0  0  0  0  0  0
   -4.6126    1.7202    0.0000 C   0  0  0  0  0  0  0  0  0  0  0  0
   -6.4906    5.2164    0.0000 C   0  0  0  0  0  0  0  0  0  0  0  0
   -5.3271    6.1631    0.0000 C   0  0  0  0  0  0  0  0  0  0  0  0
   -5.5653    7.6441    0.0000 O   0  0  0  0  0  0  0  0  0  0  0  0
   -3.9255    5.6289    0.0000 C   0  0  0  0  0  0  0  0  0  0  0  0
   -2.7620    6.5757    0.0000 O   0  0  0  0  0  0  0  0  0  0  0  0
  1  2  1  0
  2  3  1  0
  3  4  1  0
  4  5  1  0
  5  6  1  0
  6  7  1  0
  7  8  1  0
  7  9  1  0
  9 10  1  0
 10 11  1  0
 11 12  1  0
 12 13  1  0
 13 14  1  0
 13 15  1  0
 15 16  1  0
 16 17  1  0
 17 18  1  0
 18 19  1  0
 19 20  1  0
 20 21  1  0
 21 22  1  0
 21 23  1  0
 23 24  1  0
 24 25  1  0
 25 26  1  0
 26 27  1  0
 27 28  1  0
 28 29  1  0
 29 30  1  0
 29 31  1  0
 31 32  1  0
 31 33  1  0
 33 34  1  0
 34 35  2  0
 35 36  1  0
 36 37  2  0
 36 38  1  0
 38 39  1  0
 33 40  1  0
 40 41  1  0
 41 42  1  0
 42 43  1  0
 23 44  1  0
 16 45  1  0
 45 46  1  0
 46 47  1  0
 10 48  1  0
 48 49  1  0
 49 50  1  0
  4 51  1  0
 51 52  1  0
 52 53  1  0
 52 54  1  0
 54 55  1  0
 54  2  1  0
 49  6  1  0
 46 12  1  0
 44 18  1  0
 27 21  1  0
 42 31  1  0
 42 26  1  0
 39 34  1  0
M  END
> <Identifier>
30322.0

> <DILI>
0

$$$$

     RDKit          2D

 15 15  0  0  0  0  0  0  0  0999 V2000
   -6.2766    0.8798    0.0000 C   0  0  0  0  0  0  0  0  0  0  0  0
   -5.1628   -0.1249    0.0000 C   0  0  0  0  0  0  0  0  0  0  0  0
   -3.7358    0.3374    0.0000 C   0  0  0  0  0  0  0  0  0  0  0  0
   -2.6220   -0.6673    0.0000 O   0  0  0  0  0  0  0  0  0  0  0  0
   -1.1950   -0.2050    0.0000 C   0  0  0  0  0  0  0  0  0  0  0  0
   -0.8818    1.2619    0.0000 C   0  0  0  0  0  0  0  0  0  0  0  0
    0.5452    1.7242    0.0000 C   0  0  0  0  0  0  0  0  0  0  0  0
    1.6590    0.7195    0.0000 C   0  0  0  0  0  0  0  0  0  0  0  0
    3.0860    1.1818    0.0000 C   0  0  0  0  0  0  0  0  0  0  0  0
    4.1998    0.1771    0.0000 C   0  0  0  0  0  0  0  0  0  0  0  0
    3.8867   -1.2899    0.0000 O   0  0  0  0  0  0  0  0  0  0  0  0
    5.6268    0.6393    0.0000 O   0  0  0  0  0  0  0  0  0  0  0  0
    1.3459   -0.7475    0.0000 C   0  0  0  0  0  0  0  0  0  0  0  0
   -0.0811   -1.2097    0.0000 C   0  0  0  0  0  0  0  0  0  0  0  0
   -0.3943   -2.6767    0.0000 Cl  0  0  0  0  0  0  0  0  0  0  0  0
  1  2  2  0
  2  3  1  0
  3  4  1  0
  4  5  1  0
  5  6  2  0
  6  7  1  0
  7  8  2  0
  8  9  1  0
  9 10  1  0
 10 11  2  0
 10 12  1  0
  8 13  1  0
 13 14  2  0
 14 15  1  0
 14  5  1  0
M  END
> <Identifier>
30951.0

> <DILI>
1

$$$$

     RDKit          2D

 27 30  0  0  0  0  0  0  0  0999 V2000
    1.9491   -1.4786    0.0000 C   0  0  0  0  0  0  0  0  0  0  0  0
    2.6389   -0.1467    0.0000 C   0  0  0  0  0  0  0  0  0  0  0  0
    3.4475   -1.4101    0.0000 C   0  0  0  0  0  0  0  0  0  0  0  0
    4.9459   -1.3415    0.0000 C   0  0  0  0  0  0  0  0  0  0  0  0
    5.6358   -0.0096    0.0000 C   0  0  0  0  0  0  0  0  0  0  0  0
    7.1342    0.0590    0.0000 O   0  0  0  0  0  0  0  0  0  0  0  0
    4.8272    1.2538    0.0000 C   0  0  0  0  0  0  0  0  0  0  0  0
    3.3288    1.1853    0.0000 C   0  0  0  0  0  0  0  0  0  0  0  0
    2.5202    2.4487    0.0000 C   0  0  0  0  0  0  0  0  0  0  0  0
    1.0218    2.3801    0.0000 C   0  0  0  0  0  0  0  0  0  0  0  0
    0.3319    1.0482    0.0000 C   0  0  0  0  0  0  0  0  0  0  0  0
   -1.1665    0.9796    0.0000 C   0  0  0  0  0  0  0  0  0  0  0  0
   -2.2201    2.0473    0.0000 C   0  0  0  0  0  0  0  0  0  0  0  0
   -3.5611    1.3752    0.0000 C   0  0  0  0  0  0  0  0  0  0  0  0
   -3.3363   -0.1078    0.0000 C   0  0  0  0  0  0  0  0  0  0  0  0
   -3.6066   -1.5833    0.0000 O   0  0  0  0  0  0  0  0  0  0  0  0
   -4.8347   -0.1764    0.0000 C   0  0  0  0  0  0  0  0  0  0  0  0
   -5.5246   -1.5083    0.0000 O   0  0  0  0  0  0  0  0  0  0  0  0
   -5.6433    1.0870    0.0000 C   0  0  0  0  0  0  0  0  0  0  0  0
   -7.1418    1.0185    0.0000 O   0  0  0  0  0  0  0  0  0  0  0  0
   -1.8564   -0.3523    0.0000 C   0  0  0  0  0  0  0  0  0  0  0  0
   -2.5228   -1.6961    0.0000 C   0  0  0  0  0  0  0  0  0  0  0  0
   -1.0478   -1.6157    0.0000 C   0  0  0  0  0  0  0  0  0  0  0  0
    0.4506   -1.5472    0.0000 C   0  0  0  0  0  0  0  0  0  0  0  0
    1.2592   -2.8106    0.0000 O   0  0  0  0  0  0  0  0  0  0  0  0
    1.1405   -0.2152    0.0000 C   0  0  0  0  0  0  0  0  0  0  0  0
    1.8304    1.1167    0.0000 F   0  0  0  0  0  0  0  0  0  0  0  0
  1  2  1  0
  2  3  1  0
  3  4  1  0
  4  5  1  0
  5  6  2  0
  5  7  1  0
  7  8  2  0
  8  9  1  0
  9 10  1  0
 10 11  1  0
 11 12  1  0
 12 13  1  0
 13 14  1  0
 14 15  1  0
 15 16  1  0
 15 17  1  0
 17 18  2  0
 17 19  1  0
 19 20  1  0
 15 21  1  0
 21 22  1  0
 21 23  1  0
 23 24  1  0
 24 25  1  0
 24 26  1  0
 26 27  1  0
  8  2  1  0
 26 11  1  0
 26  2  1  0
 21 12  1  0
M  END
> <Identifier>
31378.0

> <DILI>
0

$$$$

     RDKit          2D

 28 31  0  0  0  0  0  0  0  0999 V2000
   -5.1275   -2.0302    0.0000 C   0  0  0  0  0  0  0  0  0  0  0  0
   -3.9468   -1.1050    0.0000 C   0  0  0  0  0  0  0  0  0  0  0  0
   -4.1576    0.3801    0.0000 C   0  0  0  0  0  0  0  0  0  0  0  0
   -5.5492    0.9401    0.0000 C   0  0  0  0  0  0  0  0  0  0  0  0
   -5.7600    2.4252    0.0000 C   0  0  0  0  0  0  0  0  0  0  0  0
   -4.5793    3.3503    0.0000 O   0  0  0  0  0  0  0  0  0  0  0  0
   -7.1516    2.9851    0.0000 O   0  0  0  0  0  0  0  0  0  0  0  0
   -2.5552   -1.6650    0.0000 C   0  0  0  0  0  0  0  0  0  0  0  0
   -2.1903   -3.1199    0.0000 C   0  0  0  0  0  0  0  0  0  0  0  0
   -0.6938   -3.2225    0.0000 C   0  0  0  0  0  0  0  0  0  0  0  0
   -0.1339   -1.8309    0.0000 C   0  0  0  0  0  0  0  0  0  0  0  0
    1.2750   -1.3159    0.0000 C   0  0  0  0  0  0  0  0  0  0  0  0
    2.4254   -2.2785    0.0000 C   0  0  0  0  0  0  0  0  0  0  0  0
    2.1670   -3.7560    0.0000 O   0  0  0  0  0  0  0  0  0  0  0  0
    3.8342   -1.7635    0.0000 C   0  0  0  0  0  0  0  0  0  0  0  0
    4.0926   -0.2859    0.0000 C   0  0  0  0  0  0  0  0  0  0  0  0
    5.5014    0.2291    0.0000 C   0  0  0  0  0  0  0  0  0  0  0  0
    5.7598    1.7067    0.0000 C   0  0  0  0  0  0  0  0  0  0  0  0
    7.1687    2.2217    0.0000 O   0  0  0  0  0  0  0  0  0  0  0  0
    4.6094    2.6692    0.0000 C   0  0  0  0  0  0  0  0  0  0  0  0
    3.2006    2.1542    0.0000 C   0  0  0  0  0  0  0  0  0  0  0  0
    2.9422    0.6767    0.0000 C   0  0  0  0  0  0  0  0  0  0  0  0
    1.7918    1.6392    0.0000 C   0  0  0  0  0  0  0  0  0  0  0  0
    1.5334    0.1617    0.0000 C   0  0  0  0  0  0  0  0  0  0  0  0
    0.3830    1.1242    0.0000 C   0  0  0  0  0  0  0  0  0  0  0  0
   -1.0259    0.6093    0.0000 C   0  0  0  0  0  0  0  0  0  0  0  0
   -1.2843   -0.8683    0.0000 C   0  0  0  0  0  0  0  0  0  0  0  0
   -2.5290   -0.0313    0.0000 C   0  0  0  0  0  0  0  0  0  0  0  0
  1  2  1  0
  2  3  1  0
  3  4  1  0
  4  5  1  0
  5  6  2  0
  5  7  1  0
  2  8  1  0
  8  9  1  0
  9 10  1  0
 10 11  1  0
 11 12  1  0
 12 13  1  0
 13 14  1  0
 13 15  1  0
 15 16  1  0
 16 17  1  0
 17 18  1  0
 18 19  1  0
 18 20  1  0
 20 21  1  0
 21 22  1  0
 22 23  1  0
 22 24  1  0
 24 25  1  0
 25 26  1  0
 26 27  1  0
 27 28  1  0
 27  8  1  0
 27 11  1  0
 24 12  1  0
 22 16  1  0
M  END
> <Identifier>
31401.0

> <DILI>
0

$$$$

     RDKit          2D

 31 32  0  0  0  0  0  0  0  0999 V2000
   -2.6931    2.7204    0.0000 C   0  0  0  0  0  0  0  0  0  0  0  0
   -1.6035    2.6283    0.0000 C   0  0  0  0  0  0  0  0  0  0  0  0
   -0.9032    3.9547    0.0000 O   0  0  0  0  0  0  0  0  0  0  0  0
   -0.8049    1.3585    0.0000 N   0  0  0  0  0  0  0  0  0  0  0  0
    0.6940    1.4152    0.0000 C   0  0  0  0  0  0  0  0  0  0  0  0
    1.3944    2.7417    0.0000 C   0  0  0  0  0  0  0  0  0  0  0  0
    0.5958    4.0115    0.0000 O   0  0  0  0  0  0  0  0  0  0  0  0
    2.8933    2.7984    0.0000 O   0  0  0  0  0  0  0  0  0  0  0  0
    3.6919    1.5287    0.0000 C   0  0  0  0  0  0  0  0  0  0  0  0
    5.1908    1.5854    0.0000 C   0  0  0  0  0  0  0  0  0  0  0  0
    5.9894    0.3157    0.0000 O   0  0  0  0  0  0  0  0  0  0  0  0
    2.9915    0.2022    0.0000 C   0  0  0  0  0  0  0  0  0  0  0  0
    3.7901   -1.0675    0.0000 O   0  0  0  0  0  0  0  0  0  0  0  0
    3.0898   -2.3940    0.0000 S   0  0  0  0  0  0  0  0  0  0  0  0
    1.7633   -1.6937    0.0000 O   0  0  0  0  0  0  0  0  0  0  0  0
    4.4162   -3.0944    0.0000 O   0  0  0  0  0  0  0  0  0  0  0  0
    2.3894   -3.7205    0.0000 O   0  0  0  0  0  1  0  0  0  0  0  0
    1.4926    0.1455    0.0000 C   0  0  0  0  0  0  0  0  0  0  0  0
    0.7923   -1.1810    0.0000 O   0  0  0  0  0  0  0  0  0  0  0  0
   -0.7067   -1.2377    0.0000 C   0  0  0  0  0  0  0  0  0  0  0  0
   -1.5053    0.0320    0.0000 O   0  0  0  0  0  0  0  0  0  0  0  0
   -3.0042   -0.0247    0.0000 C   0  0  0  0  0  0  0  0  0  0  0  0
   -3.8028    1.2451    0.0000 C   0  0  0  0  0  0  0  0  0  0  0  0
   -3.4139    2.2671    0.0000 O   0  0  0  0  0  0  0  0  0  0  0  0
   -5.3017    1.1884    0.0000 O   0  0  0  0  0  1  0  0  0  0  0  0
   -3.7045   -1.3511    0.0000 C   0  0  0  0  0  0  0  0  0  0  0  0
   -5.2034   -1.4079    0.0000 O   0  0  0  0  0  0  0  0  0  0  0  0
   -2.9059   -2.6209    0.0000 C   0  0  0  0  0  0  0  0  0  0  0  0
   -3.6063   -3.9474    0.0000 O   0  0  0  0  0  0  0  0  0  0  0  0
   -1.4070   -2.5642    0.0000 C   0  0  0  0  0  0  0  0  0  0  0  0
   -0.6084   -3.8339    0.0000 O   0  0  0  0  0  0  0  0  0  0  0  0
  1  2  1  0
  2  3  2  0
  2  4  1  0
  4  5  1  0
  5  6  1  0
  6  7  1  0
  6  8  1  0
  8  9  1  0
  9 10  1  0
 10 11  1  0
  9 12  1  0
 12 13  1  0
 13 14  1  0
 14 15  2  0
 14 16  2  0
 14 17  1  0
 12 18  1  0
 18 19  1  0
 19 20  1  0
 20 21  1  0
 21 22  1  0
 22 23  1  0
 23 24  2  0
 23 25  1  0
 22 26  1  0
 26 27  1  0
 26 28  1  0
 28 29  1  0
 28 30  1  0
 30 31  1  0
 18  5  1  0
 30 20  1  0
M  CHG  2  17  -1  25  -1
M  END
> <Identifier>
32756.0

> <DILI>
1

$$$$

     RDKit          2D

 25 27  0  0  0  0  0  0  0  0999 V2000
    6.1098   -2.7947    0.0000 C   0  0  0  0  0  0  0  0  0  0  0  0
    5.4838   -1.4315    0.0000 O   0  0  0  0  0  0  0  0  0  0  0  0
    3.9903   -1.2920    0.0000 C   0  0  0  0  0  0  0  0  0  0  0  0
    3.1228   -2.5157    0.0000 C   0  0  0  0  0  0  0  0  0  0  0  0
    1.6293   -2.3762    0.0000 C   0  0  0  0  0  0  0  0  0  0  0  0
    1.0033   -1.0131    0.0000 C   0  0  0  0  0  0  0  0  0  0  0  0
   -0.4285   -0.5661    0.0000 C   0  0  0  0  0  0  0  0  0  0  0  0
   -1.6317   -1.4618    0.0000 C   0  0  0  0  0  0  0  0  0  0  0  0
   -1.4577   -2.9517    0.0000 O   0  0  0  0  0  0  0  0  0  0  0  0
   -3.0090   -0.8676    0.0000 C   0  0  0  0  0  0  0  0  0  0  0  0
   -3.1831    0.6222    0.0000 C   0  0  0  0  0  0  0  0  0  0  0  0
   -4.5604    1.2164    0.0000 C   0  0  0  0  0  0  0  0  0  0  0  0
   -5.7636    0.3207    0.0000 C   0  0  0  0  0  0  0  0  0  0  0  0
   -7.1409    0.9149    0.0000 Cl  0  0  0  0  0  0  0  0  0  0  0  0
   -5.5896   -1.1692    0.0000 C   0  0  0  0  0  0  0  0  0  0  0  0
   -4.2123   -1.7633    0.0000 C   0  0  0  0  0  0  0  0  0  0  0  0
   -0.4459    0.9338    0.0000 C   0  0  0  0  0  0  0  0  0  0  0  0
   -1.6696    1.8013    0.0000 C   0  0  0  0  0  0  0  0  0  0  0  0
    0.9752    1.4138    0.0000 N   0  0  0  0  0  0  0  0  0  0  0  0
    1.4221    2.8457    0.0000 C   0  0  0  0  0  0  0  0  0  0  0  0
    2.8857    3.1745    0.0000 C   0  0  0  0  0  0  0  0  0  0  0  0
    3.9022    2.0715    0.0000 O   0  0  0  0  0  0  0  0  0  0  0  0
    3.3326    4.6064    0.0000 O   0  0  0  0  0  0  0  0  0  0  0  0
    1.8709    0.2106    0.0000 C   0  0  0  0  0  0  0  0  0  0  0  0
    3.3644    0.0711    0.0000 C   0  0  0  0  0  0  0  0  0  0  0  0
  1  2  1  0
  2  3  1  0
  3  4  2  0
  4  5  1  0
  5  6  2  0
  6  7  1  0
  7  8  1  0
  8  9  2  0
  8 10  1  0
 10 11  2  0
 11 12  1  0
 12 13  2  0
 13 14  1  0
 13 15  1  0
 15 16  2  0
  7 17  2  0
 17 18  1  0
 17 19  1  0
 19 20  1  0
 20 21  1  0
 21 22  2  0
 21 23  1  0
 19 24  1  0
 24 25  2  0
 25  3  1  0
 24  6  1  0
 16 10  1  0
M  END
> <Identifier>
33176.0

> <DILI>
1

$$$$

     RDKit          2D

 16 16  0  0  0  0  0  0  0  0999 V2000
   -3.2475    1.1995    0.0000 C   0  0  0  0  0  0  0  0  0  0  0  0
   -2.1451    0.1823    0.0000 C   0  0  0  0  0  0  0  0  0  0  0  0
   -1.0427   -0.8350    0.0000 C   0  0  0  0  0  0  0  0  0  0  0  0
    0.3894   -0.3889    0.0000 C   0  0  0  0  0  0  0  0  0  0  0  0
    0.7192    1.0744    0.0000 C   0  0  0  0  0  0  0  0  0  0  0  0
    2.1513    1.5204    0.0000 C   0  0  0  0  0  0  0  0  0  0  0  0
    3.2537    0.5032    0.0000 C   0  0  0  0  0  0  0  0  0  0  0  0
    4.6858    0.9492    0.0000 O   0  0  0  0  0  0  0  0  0  0  0  0
    2.9239   -0.9601    0.0000 C   0  0  0  0  0  0  0  0  0  0  0  0
    4.0263   -1.9774    0.0000 O   0  0  0  0  0  0  0  0  0  0  0  0
    1.4918   -1.4062    0.0000 C   0  0  0  0  0  0  0  0  0  0  0  0
   -1.1279    1.2846    0.0000 N   0  0  0  0  0  0  0  0  0  0  0  0
   -1.5739    2.7168    0.0000 N   0  0  0  0  0  0  0  0  0  0  0  0
   -3.1624   -0.9201    0.0000 C   0  0  0  0  0  0  0  0  0  0  0  0
   -2.7163   -2.3523    0.0000 O   0  0  0  0  0  0  0  0  0  0  0  0
   -4.6257   -0.5903    0.0000 O   0  0  0  0  0  0  0  0  0  0  0  0
  1  2  1  0
  2  3  1  0
  3  4  1  0
  4  5  2  0
  5  6  1  0
  6  7  2  0
  7  8  1  0
  7  9  1  0
  9 10  1  0
  9 11  2  0
  2 12  1  0
 12 13  1  0
  2 14  1  0
 14 15  2  0
 14 16  1  0
 11  4  1  0
M  END
> <Identifier>
34359.0

> <DILI>
0

$$$$

     RDKit          2D

 30 33  0  0  0  0  0  0  0  0999 V2000
   -7.3882    3.2533    0.0000 C   0  0  0  0  0  0  0  0  0  0  0  0
   -5.9117    3.5174    0.0000 C   0  0  0  0  0  0  0  0  0  0  0  0
   -4.9447    2.3707    0.0000 O   0  0  0  0  0  0  0  0  0  0  0  0
   -3.4681    2.6348    0.0000 C   0  0  0  0  0  0  0  0  0  0  0  0
   -2.9585    4.0456    0.0000 O   0  0  0  0  0  0  0  0  0  0  0  0
   -2.5011    1.4881    0.0000 N   0  0  0  0  0  0  0  0  0  0  0  0
   -1.0245    1.7522    0.0000 C   0  0  0  0  0  0  0  0  0  0  0  0
   -0.5149    3.1630    0.0000 C   0  0  0  0  0  0  0  0  0  0  0  0
    0.9616    3.4271    0.0000 C   0  0  0  0  0  0  0  0  0  0  0  0
    1.9286    2.2804    0.0000 C   0  0  0  0  0  0  0  0  0  0  0  0
    1.4191    0.8696    0.0000 C   0  0  0  0  0  0  0  0  0  0  0  0
   -0.0575    0.6056    0.0000 C   0  0  0  0  0  0  0  0  0  0  0  0
    2.3861   -0.2770    0.0000 N   0  0  0  0  0  0  0  0  0  0  0  0
    1.8765   -1.6878    0.0000 C   0  0  0  0  0  0  0  0  0  0  0  0
    2.8435   -2.8345    0.0000 O   0  0  0  0  0  0  0  0  0  0  0  0
    0.3999   -1.9519    0.0000 C   0  0  0  0  0  0  0  0  0  0  0  0
   -0.1097   -3.3627    0.0000 C   0  0  0  0  0  0  0  0  0  0  0  0
   -1.5862   -3.6268    0.0000 N   0  0  0  0  0  0  0  0  0  0  0  0
   -2.5532   -2.4801    0.0000 C   0  0  0  0  0  0  0  0  0  0  0  0
   -4.0298   -2.7442    0.0000 C   0  0  0  0  0  0  0  0  0  0  0  0
   -4.5394   -4.1550    0.0000 O   0  0  0  0  0  0  0  0  0  0  0  0
   -3.5724   -5.3017    0.0000 C   0  0  0  0  0  0  0  0  0  0  0  0
   -2.0958   -5.0376    0.0000 C   0  0  0  0  0  0  0  0  0  0  0  0
    3.8626   -0.0129    0.0000 C   0  0  0  0  0  0  0  0  0  0  0  0
    4.8296   -1.1596    0.0000 C   0  0  0  0  0  0  0  0  0  0  0  0
    6.3062   -0.8955    0.0000 C   0  0  0  0  0  0  0  0  0  0  0  0
    6.8158    0.5153    0.0000 C   0  0  0  0  0  0  0  0  0  0  0  0
    5.8488    1.6619    0.0000 C   0  0  0  0  0  0  0  0  0  0  0  0
    4.3722    1.3978    0.0000 C   0  0  0  0  0  0  0  0  0  0  0  0
    3.4052    2.5445    0.0000 S   0  0  0  0  0  0  0  0  0  0  0  0
  1  2  1  0
  2  3  1  0
  3  4  1  0
  4  5  2  0
  4  6  1  0
  6  7  1  0
  7  8  2  0
  8  9  1  0
  9 10  2  0
 10 11  1  0
 11 12  2  0
 11 13  1  0
 13 14  1  0
 14 15  2  0
 14 16  1  0
 16 17  1  0
 17 18  1  0
 18 19  1  0
 19 20  1  0
 20 21  1  0
 21 22  1  0
 22 23  1  0
 13 24  1  0
 24 25  2  0
 25 26  1  0
 26 27  2  0
 27 28  1  0
 28 29  2  0
 29 30  1  0
 12  7  1  0
 23 18  1  0
 29 24  1  0
 30 10  1  0
M  END
> <Identifier>
34633.0

> <DILI>
1

$$$$

     RDKit          2D

 19 20  0  0  0  0  0  0  0  0999 V2000
    4.5381   -2.4317    0.0000 C   0  0  0  0  0  0  0  0  0  0  0  0
    3.7151   -1.1777    0.0000 C   0  0  0  0  0  0  0  0  0  0  0  0
    2.2175   -1.2634    0.0000 C   0  0  0  0  0  0  0  0  0  0  0  0
    1.3945   -0.0093    0.0000 N   0  0  0  0  0  0  0  0  0  0  0  0
   -0.1030   -0.0950    0.0000 C   0  0  0  0  0  0  0  0  0  0  0  0
   -0.9139   -1.3569    0.0000 C   0  0  0  0  0  0  0  0  0  0  0  0
   -2.3646   -0.9757    0.0000 C   0  0  0  0  0  0  0  0  0  0  0  0
   -3.5258   -1.9253    0.0000 N   0  0  0  0  0  0  0  0  0  0  0  0
   -4.9287   -1.3944    0.0000 N   0  0  0  0  0  4  0  0  0  0  0  0
   -6.3317   -0.8636    0.0000 N   0  0  0  0  0  2  0  0  0  0  0  0
   -2.4503    0.5219    0.0000 C   0  0  0  0  0  0  0  0  0  0  0  0
   -3.7123    1.3328    0.0000 C   0  0  0  0  0  0  0  0  0  0  0  0
   -3.6410    2.8311    0.0000 O   0  0  0  0  0  0  0  0  0  0  0  0
   -1.0526    1.0662    0.0000 O   0  0  0  0  0  0  0  0  0  0  0  0
    2.0691    1.3305    0.0000 C   0  0  0  0  0  0  0  0  0  0  0  0
    1.2461    2.5845    0.0000 O   0  0  0  0  0  0  0  0  0  0  0  0
    3.5666    1.4162    0.0000 N   0  0  0  0  0  0  0  0  0  0  0  0
    4.3896    0.1621    0.0000 C   0  0  0  0  0  0  0  0  0  0  0  0
    5.8872    0.2478    0.0000 O   0  0  0  0  0  0  0  0  0  0  0  0
  1  2  1  0
  2  3  2  0
  3  4  1  0
  4  5  1  0
  5  6  1  0
  6  7  1  0
  7  8  1  0
  8  9  2  0
  9 10  2  0
  7 11  1  0
 11 12  1  0
 12 13  1  0
 11 14  1  0
  4 15  1  0
 15 16  2  0
 15 17  1  0
 17 18  1  0
 18 19  2  0
 18  2  1  0
 14  5  1  0
M  CHG  2   9   1  10  -1
M  END
> <Identifier>
35370.0

> <DILI>
1

$$$$

     RDKit          2D

 17 18  0  0  0  0  0  0  0  0999 V2000
    3.8436   -1.9990    0.0000 C   0  0  0  0  0  0  0  0  0  0  0  0
    3.2013   -0.6435    0.0000 C   0  0  0  0  0  0  0  0  0  0  0  0
    4.0541    0.5905    0.0000 C   0  0  0  0  0  0  0  0  0  0  0  0
    3.4118    1.9460    0.0000 O   0  0  0  0  0  0  0  0  0  0  0  0
    5.5492    0.4690    0.0000 O   0  0  0  0  0  0  0  0  0  0  0  0
    1.7063   -0.5220    0.0000 C   0  0  0  0  0  0  0  0  0  0  0  0
    0.8535   -1.7560    0.0000 C   0  0  0  0  0  0  0  0  0  0  0  0
   -0.6416   -1.6345    0.0000 C   0  0  0  0  0  0  0  0  0  0  0  0
   -1.2839   -0.2790    0.0000 C   0  0  0  0  0  0  0  0  0  0  0  0
   -2.7790   -0.1575    0.0000 N   0  0  0  0  0  0  0  0  0  0  0  0
   -3.7560   -1.2956    0.0000 C   0  0  0  0  0  0  0  0  0  0  0  0
   -5.1404   -0.7180    0.0000 C   0  0  0  0  0  0  0  0  0  0  0  0
   -5.0189    0.7771    0.0000 C   0  0  0  0  0  0  0  0  0  0  0  0
   -3.5594    1.1235    0.0000 C   0  0  0  0  0  0  0  0  0  0  0  0
   -0.4311    0.9550    0.0000 C   0  0  0  0  0  0  0  0  0  0  0  0
   -1.0734    2.3106    0.0000 Cl  0  0  0  0  0  0  0  0  0  0  0  0
    1.0640    0.8335    0.0000 C   0  0  0  0  0  0  0  0  0  0  0  0
  1  2  1  0
  2  3  1  0
  3  4  2  0
  3  5  1  0
  2  6  1  0
  6  7  2  0
  7  8  1  0
  8  9  2  0
  9 10  1  0
 10 11  1  0
 11 12  1  0
 12 13  2  0
 13 14  1  0
  9 15  1  0
 15 16  1  0
 15 17  2  0
 17  6  1  0
 14 10  1  0
M  END
> <Identifier>
35935.0

> <DILI>
1

$$$$

     RDKit          2D

 62 68  0  0  0  0  0  0  0  0999 V2000
   -6.9299    5.7626    0.0000 C   0  0  0  0  0  0  0  0  0  0  0  0
   -6.3221    4.3913    0.0000 C   0  0  0  0  0  0  0  0  0  0  0  0
   -7.2057    3.1792    0.0000 O   0  0  0  0  0  0  0  0  0  0  0  0
   -4.8305    4.2321    0.0000 O   0  0  0  0  0  0  0  0  0  0  0  0
   -4.2227    2.8607    0.0000 C   0  0  0  0  0  0  0  0  0  0  0  0
   -5.2570    1.7744    0.0000 C   0  0  0  0  0  0  0  0  0  0  0  0
   -6.6565    2.3142    0.0000 O   0  0  0  0  0  0  0  0  0  0  0  0
   -5.2202    0.2748    0.0000 C   0  0  0  0  0  0  0  0  0  0  0  0
   -6.4323    1.1585    0.0000 C   0  0  0  0  0  0  0  0  0  0  0  0
   -6.6591   -0.1488    0.0000 C   0  0  0  0  0  0  0  0  0  0  0  0
   -7.7455    0.8855    0.0000 O   0  0  0  0  0  0  0  0  0  0  0  0
   -7.0117   -1.6068    0.0000 C   0  0  0  0  0  0  0  0  0  0  0  0
   -5.9253   -2.6411    0.0000 C   0  0  0  0  0  0  0  0  0  0  0  0
   -5.5016   -4.0801    0.0000 O   0  0  0  0  0  0  0  0  0  0  0  0
   -4.0627   -3.6564    0.0000 C   0  0  0  0  0  0  0  0  0  0  0  0
   -4.4864   -2.2175    0.0000 C   0  0  0  0  0  0  0  0  0  0  0  0
   -2.9868   -2.1807    0.0000 O   0  0  0  0  0  0  0  0  0  0  0  0
   -2.2052   -3.4609    0.0000 C   0  0  0  0  0  0  0  0  0  0  0  0
   -0.7056   -3.4241    0.0000 C   0  0  0  0  0  0  0  0  0  0  0  0
   -2.9231   -4.7780    0.0000 O   0  0  0  0  0  0  0  0  0  0  0  0
   -4.1338   -0.7595    0.0000 C   0  0  0  0  0  0  0  0  0  0  0  0
   -2.6343   -0.7227    0.0000 C   0  0  0  0  0  0  0  0  0  0  0  0
   -2.0264   -2.0940    0.0000 O   0  0  0  0  0  0  0  0  0  0  0  0
   -0.5349   -2.2532    0.0000 C   0  0  0  0  0  0  0  0  0  0  0  0
    0.3488   -1.0412    0.0000 O   0  0  0  0  0  0  0  0  0  0  0  0
    0.0730   -3.6245    0.0000 C   0  0  0  0  0  0  0  0  0  0  0  0
   -0.8107   -4.8366    0.0000 C   0  0  0  0  0  0  0  0  0  0  0  0
   -0.2028   -6.2079    0.0000 C   0  0  0  0  0  0  0  0  0  0  0  0
    1.2887   -6.3672    0.0000 C   0  0  0  0  0  0  0  0  0  0  0  0
    2.1724   -5.1551    0.0000 C   0  0  0  0  0  0  0  0  0  0  0  0
    1.5645   -3.7838    0.0000 C   0  0  0  0  0  0  0  0  0  0  0  0
   -1.5999    0.3637    0.0000 C   0  0  0  0  0  0  0  0  0  0  0  0
   -0.2005   -0.1762    0.0000 O   0  0  0  0  0  0  0  0  0  0  0  0
   -0.2990    1.1302    0.0000 C   0  0  0  0  0  0  0  0  0  0  0  0
   -0.1397    2.6217    0.0000 C   0  0  0  0  0  0  0  0  0  0  0  0
    1.2316    3.2296    0.0000 O   0  0  0  0  0  0  0  0  0  0  0  0
    2.4437    2.3459    0.0000 C   0  0  0  0  0  0  0  0  0  0  0  0
    2.2844    0.8544    0.0000 O   0  0  0  0  0  0  0  0  0  0  0  0
    3.8150    2.9538    0.0000 C   0  0  0  0  0  0  0  0  0  0  0  0
    3.9742    4.4453    0.0000 O   0  0  0  0  0  0  0  0  0  0  0  0
    5.0271    2.0701    0.0000 C   0  0  0  0  0  0  0  0  0  0  0  0
    4.8678    0.5786    0.0000 N   0  0  0  0  0  0  0  0  0  0  0  0
    6.0799   -0.3051    0.0000 C   0  0  0  0  0  0  0  0  0  0  0  0
    7.4512    0.3028    0.0000 O   0  0  0  0  0  0  0  0  0  0  0  0
    5.9207   -1.7966    0.0000 C   0  0  0  0  0  0  0  0  0  0  0  0
    4.5494   -2.4044    0.0000 C   0  0  0  0  0  0  0  0  0  0  0  0
    4.3901   -3.8960    0.0000 C   0  0  0  0  0  0  0  0  0  0  0  0
    5.6022   -4.7796    0.0000 C   0  0  0  0  0  0  0  0  0  0  0  0
    6.9735   -4.1718    0.0000 C   0  0  0  0  0  0  0  0  0  0  0  0
    7.1328   -2.6802    0.0000 C   0  0  0  0  0  0  0  0  0  0  0  0
    6.3984    2.6780    0.0000 C   0  0  0  0  0  0  0  0  0  0  0  0
    7.6105    1.7943    0.0000 C   0  0  0  0  0  0  0  0  0  0  0  0
    8.9818    2.4022    0.0000 C   0  0  0  0  0  0  0  0  0  0  0  0
    9.1410    3.8937    0.0000 C   0  0  0  0  0  0  0  0  0  0  0  0
    7.9289    4.7774    0.0000 C   0  0  0  0  0  0  0  0  0  0  0  0
    6.5576    4.1695    0.0000 C   0  0  0  0  0  0  0  0  0  0  0  0
   -1.3518    3.5054    0.0000 C   0  0  0  0  0  0  0  0  0  0  0  0
   -1.1926    4.9969    0.0000 C   0  0  0  0  0  0  0  0  0  0  0  0
   -2.7231    2.8975    0.0000 C   0  0  0  0  0  0  0  0  0  0  0  0
   -1.6368    1.8632    0.0000 C   0  0  0  0  0  0  0  0  0  0  0  0
   -0.1368    1.8739    0.0000 C   0  0  0  0  0  0  0  0  0  0  0  0
   -0.8966    2.6682    0.0000 C   0  0  0  0  0  0  0  0  0  0  0  0
  1  2  1  0
  2  3  2  0
  2  4  1  0
  4  5  1  0
  5  6  1  0
  6  7  2  0
  6  8  1  0
  8  9  1  0
  8 10  1  0
 10 11  1  0
 10 12  1  0
 12 13  1  0
 13 14  1  0
 14 15  1  0
 15 16  1  0
 16 17  1  0
 17 18  1  0
 18 19  1  0
 18 20  2  0
 16 21  1  0
 21 22  1  0
 22 23  1  0
 23 24  1  0
 24 25  2  0
 24 26  1  0
 26 27  2  0
 27 28  1  0
 28 29  2  0
 29 30  1  0
 30 31  2  0
 22 32  1  0
 32 33  1  0
 32 34  1  0
 34 35  1  0
 35 36  1  0
 36 37  1  0
 37 38  2  0
 37 39  1  0
 39 40  1  0
 39 41  1  0
 41 42  1  0
 42 43  1  0
 43 44  2  0
 43 45  1  0
 45 46  2  0
 46 47  1  0
 47 48  2  0
 48 49  1  0
 49 50  2  0
 41 51  1  0
 51 52  2  0
 52 53  1  0
 53 54  2  0
 54 55  1  0
 55 56  2  0
 35 57  1  0
 57 58  1  0
 57 59  2  0
 59 60  1  0
 60 61  1  0
 60 62  1  0
 59  5  1  0
 21  8  1  0
 31 26  1  0
 60 32  1  0
 16 13  1  0
 50 45  1  0
 56 51  1  0
M  END
> <Identifier>
36314.0

> <DILI>
1

$$$$

     RDKit          2D

 42 48  0  0  0  0  0  0  0  0999 V2000
    8.6507   -0.4440    0.0000 C   0  0  0  0  0  0  0  0  0  0  0  0
    7.3026   -1.1017    0.0000 O   0  0  0  0  0  0  0  0  0  0  0  0
    6.0589   -0.2631    0.0000 C   0  0  0  0  0  0  0  0  0  0  0  0
    4.7108   -0.9208    0.0000 C   0  0  0  0  0  0  0  0  0  0  0  0
    3.4672   -0.0822    0.0000 C   0  0  0  0  0  0  0  0  0  0  0  0
    2.1191   -0.7400    0.0000 C   0  0  0  0  0  0  0  0  0  0  0  0
    0.8754    0.0986    0.0000 C   0  0  0  0  0  0  0  0  0  0  0  0
    0.9798    1.5950    0.0000 C   0  0  0  0  0  0  0  0  0  0  0  0
   -0.2639    2.4336    0.0000 C   0  0  0  0  0  0  0  0  0  0  0  0
   -1.6120    1.7759    0.0000 C   0  0  0  0  0  0  0  0  0  0  0  0
   -1.7164    0.2795    0.0000 C   0  0  0  0  0  0  0  0  0  0  0  0
   -0.4727   -0.5591    0.0000 C   0  0  0  0  0  0  0  0  0  0  0  0
   -0.5771   -2.0555    0.0000 C   0  0  0  0  0  0  0  0  0  0  0  0
   -1.9252   -2.7132    0.0000 O   0  0  0  0  0  0  0  0  0  0  0  0
   -3.1689   -1.8746    0.0000 C   0  0  0  0  0  0  0  0  0  0  0  0
   -3.0645   -0.3783    0.0000 O   0  0  0  0  0  0  0  0  0  0  0  0
   -4.3081    0.4604    0.0000 C   0  0  0  0  0  0  0  0  0  0  0  0
   -4.2037    1.9567    0.0000 C   0  0  0  0  0  0  0  0  0  0  0  0
   -5.4474    2.7953    0.0000 O   0  0  0  0  0  0  0  0  0  0  0  0
   -6.7955    2.1376    0.0000 C   0  0  0  0  0  0  0  0  0  0  0  0
   -8.0392    2.9762    0.0000 C   0  0  0  0  0  0  0  0  0  0  0  0
   -6.8999    0.6412    0.0000 O   0  0  0  0  0  0  0  0  0  0  0  0
   -5.6562   -0.1974    0.0000 C   0  0  0  0  0  0  0  0  0  0  0  0
   -5.7607   -1.6938    0.0000 C   0  0  0  0  0  0  0  0  0  0  0  0
   -7.1088   -2.3515    0.0000 O   0  0  0  0  0  0  0  0  0  0  0  0
   -4.5170   -2.5324    0.0000 C   0  0  0  0  0  0  0  0  0  0  0  0
   -4.6214   -4.0287    0.0000 O   0  0  0  0  0  0  0  0  0  0  0  0
    0.6666   -2.8941    0.0000 C   0  0  0  0  0  0  0  0  0  0  0  0
    0.8755   -4.3795    0.0000 C   0  0  0  0  0  0  0  0  0  0  0  0
    2.3528   -4.6397    0.0000 O   0  0  0  0  0  0  0  0  0  0  0  0
    3.0568   -3.3152    0.0000 C   0  0  0  0  0  0  0  0  0  0  0  0
    4.5422   -3.1062    0.0000 O   0  0  0  0  0  0  0  0  0  0  0  0
    2.0147   -2.2363    0.0000 C   0  0  0  0  0  0  0  0  0  0  0  0
   -2.6541    2.8547    0.0000 O   0  0  0  0  0  0  0  0  0  0  0  0
   -1.9501    4.1792    0.0000 C   0  0  0  0  0  0  0  0  0  0  0  0
   -0.4728    3.9190    0.0000 O   0  0  0  0  0  0  0  0  0  0  0  0
    3.5716    1.4141    0.0000 C   0  0  0  0  0  0  0  0  0  0  0  0
    4.9197    2.0719    0.0000 C   0  0  0  0  0  0  0  0  0  0  0  0
    5.0241    3.5682    0.0000 O   0  0  0  0  0  0  0  0  0  0  0  0
    6.3722    4.2260    0.0000 C   0  0  0  0  0  0  0  0  0  0  0  0
    6.1634    1.2333    0.0000 C   0  0  0  0  0  0  0  0  0  0  0  0
    7.5115    1.8910    0.0000 O   0  0  0  0  0  0  0  0  0  0  0  0
  1  2  1  0
  2  3  1  0
  3  4  2  0
  4  5  1  0
  5  6  1  0
  6  7  1  0
  7  8  2  0
  8  9  1  0
  9 10  2  0
 10 11  1  0
 11 12  2  0
 12 13  1  0
 13 14  1  0
 14 15  1  0
 15 16  1  0
 16 17  1  0
 17 18  1  0
 18 19  1  0
 19 20  1  0
 20 21  1  0
 20 22  1  0
 22 23  1  0
 23 24  1  0
 24 25  1  0
 24 26  1  0
 26 27  1  0
 13 28  1  0
 28 29  1  0
 29 30  1  0
 30 31  1  0
 31 32  2  0
 31 33  1  0
 10 34  1  0
 34 35  1  0
 35 36  1  0
  5 37  2  0
 37 38  1  0
 38 39  1  0
 39 40  1  0
 38 41  2  0
 41 42  1  0
 41  3  1  0
 33  6  1  0
 12  7  1  0
 26 15  1  0
 33 28  1  0
 36  9  1  0
 23 17  1  0
M  END
> <Identifier>
36462.0

> <DILI>
1

$$$$

     RDKit          2D

 22 23  0  0  0  0  0  0  0  0999 V2000
    0.4067    2.9840    0.0000 C   0  0  0  0  0  0  0  0  0  0  0  0
    0.9586    1.5893    0.0000 C   0  0  0  0  0  0  0  0  0  0  0  0
    2.4425    1.3699    0.0000 C   0  0  0  0  0  0  0  0  0  0  0  0
    2.9945   -0.0249    0.0000 C   0  0  0  0  0  0  0  0  0  0  0  0
    4.4783   -0.2443    0.0000 C   0  0  0  0  0  0  0  0  0  0  0  0
    5.0303   -1.6390    0.0000 C   0  0  0  0  0  0  0  0  0  0  0  0
    6.5142   -1.8584    0.0000 C   0  0  0  0  0  0  0  0  0  0  0  0
    7.4461   -0.6830    0.0000 C   0  0  0  0  0  0  0  0  0  0  0  0
    8.9300   -0.9024    0.0000 O   0  0  0  0  0  0  0  0  0  0  0  0
    6.8941    0.7118    0.0000 C   0  0  0  0  0  0  0  0  0  0  0  0
    5.4103    0.9311    0.0000 C   0  0  0  0  0  0  0  0  0  0  0  0
    0.0267    0.4139    0.0000 N   0  0  0  0  0  0  0  0  0  0  0  0
   -1.4571    0.6332    0.0000 C   0  0  0  0  0  0  0  0  0  0  0  0
   -2.3891   -0.5421    0.0000 C   0  0  0  0  0  0  0  0  0  0  0  0
   -3.8729   -0.3228    0.0000 C   0  0  0  0  0  0  0  0  0  0  0  0
   -4.4249    1.0720    0.0000 C   0  0  0  0  0  0  0  0  0  0  0  0
   -5.9088    1.2914    0.0000 C   0  0  0  0  0  0  0  0  0  0  0  0
   -6.8407    0.1160    0.0000 C   0  0  0  0  0  0  0  0  0  0  0  0
   -8.3246    0.3354    0.0000 O   0  0  0  0  0  0  0  0  0  0  0  0
   -6.2887   -1.2788    0.0000 C   0  0  0  0  0  0  0  0  0  0  0  0
   -7.2207   -2.4542    0.0000 O   0  0  0  0  0  0  0  0  0  0  0  0
   -4.8049   -1.4981    0.0000 C   0  0  0  0  0  0  0  0  0  0  0  0
  1  2  1  0
  2  3  1  0
  3  4  1  0
  4  5  1  0
  5  6  2  0
  6  7  1  0
  7  8  2  0
  8  9  1  0
  8 10  1  0
 10 11  2  0
  2 12  1  0
 12 13  1  0
 13 14  1  0
 14 15  1  0
 15 16  2  0
 16 17  1  0
 17 18  2  0
 18 19  1  0
 18 20  1  0
 20 21  1  0
 20 22  2  0
 11  5  1  0
 22 15  1  0
M  END
> <Identifier>
36811.0

> <DILI>
0

$$$$

     RDKit          2D

 21 22  0  0  0  0  0  0  0  0999 V2000
   -6.4197   -1.4588    0.0000 C   0  0  0  0  0  0  0  0  0  0  0  0
   -5.8697   -0.0632    0.0000 C   0  0  0  0  0  0  0  0  0  0  0  0
   -5.3196    1.3323    0.0000 C   0  0  0  0  0  0  0  0  0  0  0  0
   -7.2652    0.4868    0.0000 C   0  0  0  0  0  0  0  0  0  0  0  0
   -4.4742   -0.6133    0.0000 N   0  0  0  0  0  0  0  0  0  0  0  0
   -3.3001    0.3202    0.0000 C   0  0  0  0  0  0  0  0  0  0  0  0
   -1.9046   -0.2298    0.0000 C   0  0  0  0  0  0  0  0  0  0  0  0
   -1.6832   -1.7134    0.0000 O   0  0  0  0  0  0  0  0  0  0  0  0
   -0.7305    0.7037    0.0000 C   0  0  0  0  0  0  0  0  0  0  0  0
    0.6651    0.1536    0.0000 O   0  0  0  0  0  0  0  0  0  0  0  0
    1.8392    1.0872    0.0000 C   0  0  0  0  0  0  0  0  0  0  0  0
    1.6178    2.5707    0.0000 C   0  0  0  0  0  0  0  0  0  0  0  0
    2.7919    3.5043    0.0000 C   0  0  0  0  0  0  0  0  0  0  0  0
    4.1874    2.9542    0.0000 C   0  0  0  0  0  0  0  0  0  0  0  0
    4.4088    1.4706    0.0000 C   0  0  0  0  0  0  0  0  0  0  0  0
    3.2347    0.5371    0.0000 C   0  0  0  0  0  0  0  0  0  0  0  0
    3.4561   -0.9465    0.0000 C   0  0  0  0  0  0  0  0  0  0  0  0
    4.7864   -1.6394    0.0000 C   0  0  0  0  0  0  0  0  0  0  0  0
    4.5386   -3.1187    0.0000 C   0  0  0  0  0  0  0  0  0  0  0  0
    3.0550   -3.3401    0.0000 C   0  0  0  0  0  0  0  0  0  0  0  0
    2.3860   -1.9976    0.0000 C   0  0  0  0  0  0  0  0  0  0  0  0
  1  2  1  0
  2  3  1  0
  2  4  1  0
  2  5  1  0
  5  6  1  0
  6  7  1  0
  7  8  1  0
  7  9  1  0
  9 10  1  0
 10 11  1  0
 11 12  2  0
 12 13  1  0
 13 14  2  0
 14 15  1  0
 15 16  2  0
 16 17  1  0
 17 18  1  0
 18 19  1  0
 19 20  1  0
 20 21  1  0
 16 11  1  0
 21 17  1  0
M  END
> <Identifier>
37464.0

> <DILI>
0

$$$$

     RDKit          2D

 40 42  0  0  0  0  0  0  0  0999 V2000
   -5.2111    6.2987    0.0000 N   0  0  0  0  0  0  0  0  0  0  0  0
   -4.1075    5.2827    0.0000 C   0  0  0  0  0  0  0  0  0  0  0  0
   -4.4357    3.8191    0.0000 C   0  0  0  0  0  0  0  0  0  0  0  0
   -3.3322    2.8031    0.0000 C   0  0  0  0  0  0  0  0  0  0  0  0
   -1.9005    3.2507    0.0000 O   0  0  0  0  0  0  0  0  0  0  0  0
   -3.6603    1.3394    0.0000 C   0  0  0  0  0  0  0  0  0  0  0  0
   -5.0919    0.8917    0.0000 O   0  0  0  0  0  0  0  0  0  0  0  0
   -2.5568    0.3234    0.0000 N   0  0  0  0  0  0  0  0  0  0  0  0
   -1.1251    0.7711    0.0000 C   0  0  0  0  0  0  0  0  0  0  0  0
   -0.7970    2.2347    0.0000 C   0  0  0  0  0  0  0  0  0  0  0  0
    0.6346    2.6824    0.0000 C   0  0  0  0  0  0  0  0  0  0  0  0
    0.9628    4.1461    0.0000 N   0  0  0  0  0  0  0  0  0  0  0  0
    1.7381    1.6664    0.0000 C   0  0  0  0  0  0  0  0  0  0  0  0
    3.1698    2.1141    0.0000 O   0  0  0  0  0  0  0  0  0  0  0  0
    4.2733    1.0981    0.0000 C   0  0  0  0  0  0  0  0  0  0  0  0
    3.9452   -0.3656    0.0000 O   0  0  0  0  0  0  0  0  0  0  0  0
    5.0487   -1.3816    0.0000 C   0  0  0  0  0  0  0  0  0  0  0  0
    4.7205   -2.8453    0.0000 C   0  0  0  0  0  0  0  0  0  0  0  0
    5.8241   -3.8613    0.0000 N   0  0  0  0  0  0  0  0  0  0  0  0
    6.4803   -0.9340    0.0000 C   0  0  0  0  0  0  0  0  0  0  0  0
    7.5838   -1.9500    0.0000 O   0  0  0  0  0  0  0  0  0  0  0  0
    6.8084    0.5297    0.0000 C   0  0  0  0  0  0  0  0  0  0  0  0
    8.2401    0.9774    0.0000 O   0  0  0  0  0  0  0  0  0  0  0  0
    5.7049    1.5457    0.0000 C   0  0  0  0  0  0  0  0  0  0  0  0
    6.0331    3.0094    0.0000 O   0  0  0  0  0  0  0  0  0  0  0  0
    1.4100    0.2027    0.0000 C   0  0  0  0  0  0  0  0  0  0  0  0
    2.5135   -0.8133    0.0000 O   0  0  0  0  0  0  0  0  0  0  0  0
   -0.0216   -0.2450    0.0000 C   0  0  0  0  0  0  0  0  0  0  0  0
   -0.3498   -1.7086    0.0000 O   0  0  0  0  0  0  0  0  0  0  0  0
   -1.7814   -2.1563    0.0000 C   0  0  0  0  0  0  0  0  0  0  0  0
   -2.8849   -1.1403    0.0000 O   0  0  0  0  0  0  0  0  0  0  0  0
   -4.3166   -1.5880    0.0000 C   0  0  0  0  0  0  0  0  0  0  0  0
   -5.4201   -0.5719    0.0000 C   0  0  0  0  0  0  0  0  0  0  0  0
   -6.8517   -1.0196    0.0000 O   0  0  0  0  0  0  0  0  0  0  0  0
   -4.6447   -3.0516    0.0000 C   0  0  0  0  0  0  0  0  0  0  0  0
   -6.0763   -3.4993    0.0000 O   0  0  0  0  0  0  0  0  0  0  0  0
   -3.5412   -4.0676    0.0000 C   0  0  0  0  0  0  0  0  0  0  0  0
   -3.8693   -5.5313    0.0000 N   0  0  0  0  0  0  0  0  0  0  0  0
   -2.1095   -3.6200    0.0000 C   0  0  0  0  0  0  0  0  0  0  0  0
   -1.0060   -4.6360    0.0000 O   0  0  0  0  0  0  0  0  0  0  0  0
  1  2  1  0
  2  3  1  0
  3  4  1  0
  4  5  1  0
  4  6  1  0
  6  7  2  0
  6  8  1  0
  8  9  1  0
  9 10  1  0
 10 11  1  0
 11 12  1  0
 11 13  1  0
 13 14  1  0
 14 15  1  0
 15 16  1  0
 16 17  1  0
 17 18  1  0
 18 19  1  0
 17 20  1  0
 20 21  1  0
 20 22  1  0
 22 23  1  0
 22 24  1  0
 24 25  1  0
 13 26  1  0
 26 27  1  0
 26 28  1  0
 28 29  1  0
 29 30  1  0
 30 31  1  0
 31 32  1  0
 32 33  1  0
 33 34  1  0
 32 35  1  0
 35 36  1  0
 35 37  1  0
 37 38  1  0
 37 39  1  0
 39 40  1  0
 28  9  1  0
 39 30  1  0
 24 15  1  0
M  END
> <Identifier>
37768.0

> <DILI>
0

$$$$

     RDKit          2D

 20 21  0  0  0  0  0  0  0  0999 V2000
   -6.0898   -1.4391    0.0000 O   0  0  0  0  0  0  0  0  0  0  0  0
   -5.7833    0.0292    0.0000 C   0  0  0  0  0  0  0  0  0  0  0  0
   -6.9017    1.0288    0.0000 O   0  0  0  0  0  0  0  0  0  0  0  0
   -4.3584    0.4980    0.0000 C   0  0  0  0  0  0  0  0  0  0  0  0
   -3.2400   -0.5016    0.0000 O   0  0  0  0  0  0  0  0  0  0  0  0
   -1.8151   -0.0328    0.0000 C   0  0  0  0  0  0  0  0  0  0  0  0
   -1.5087    1.4355    0.0000 C   0  0  0  0  0  0  0  0  0  0  0  0
   -0.0838    1.9043    0.0000 C   0  0  0  0  0  0  0  0  0  0  0  0
    1.0346    0.9047    0.0000 C   0  0  0  0  0  0  0  0  0  0  0  0
    2.4595    1.3735    0.0000 C   0  0  0  0  0  0  0  0  0  0  0  0
    2.7659    2.8418    0.0000 O   0  0  0  0  0  0  0  0  0  0  0  0
    3.5779    0.3739    0.0000 C   0  0  0  0  0  0  0  0  0  0  0  0
    5.0439    0.6911    0.0000 C   0  0  0  0  0  0  0  0  0  0  0  0
    5.7987   -0.6051    0.0000 C   0  0  0  0  0  0  0  0  0  0  0  0
    4.7991   -1.7235    0.0000 C   0  0  0  0  0  0  0  0  0  0  0  0
    3.4266   -1.1185    0.0000 S   0  0  0  0  0  0  0  0  0  0  0  0
    0.7281   -0.5637    0.0000 C   0  0  0  0  0  0  0  0  0  0  0  0
    1.8465   -1.5632    0.0000 Cl  0  0  0  0  0  0  0  0  0  0  0  0
   -0.6967   -1.0324    0.0000 C   0  0  0  0  0  0  0  0  0  0  0  0
   -1.0032   -2.5008    0.0000 Cl  0  0  0  0  0  0  0  0  0  0  0  0
  1  2  2  0
  2  3  1  0
  2  4  1  0
  4  5  1  0
  5  6  1  0
  6  7  2  0
  7  8  1  0
  8  9  2  0
  9 10  1  0
 10 11  2  0
 10 12  1  0
 12 13  2  0
 13 14  1  0
 14 15  2  0
 15 16  1  0
  9 17  1  0
 17 18  1  0
 17 19  2  0
 19 20  1  0
 19  6  1  0
 16 12  1  0
M  END
> <Identifier>
38409.0

> <DILI>
1

$$$$

     RDKit          2D

 25 26  0  0  0  0  0  0  0  0999 V2000
   -7.4419   -1.3455    0.0000 C   0  0  0  0  0  0  0  0  0  0  0  0
   -6.4532   -0.2174    0.0000 C   0  0  0  0  0  0  0  0  0  0  0  0
   -5.4646    0.9107    0.0000 C   0  0  0  0  0  0  0  0  0  0  0  0
   -5.3251   -1.2060    0.0000 O   0  0  0  0  0  0  0  0  0  0  0  0
   -3.9049   -0.7234    0.0000 C   0  0  0  0  0  0  0  0  0  0  0  0
   -3.6128    0.7479    0.0000 C   0  0  0  0  0  0  0  0  0  0  0  0
   -2.1926    1.2306    0.0000 C   0  0  0  0  0  0  0  0  0  0  0  0
   -1.0645    0.2419    0.0000 C   0  0  0  0  0  0  0  0  0  0  0  0
    0.3558    0.7246    0.0000 C   0  0  0  0  0  0  0  0  0  0  0  0
    1.4839   -0.2640    0.0000 C   0  0  0  0  0  0  0  0  0  0  0  0
    2.9041    0.2186    0.0000 N   0  0  0  0  0  0  0  0  0  0  0  0
    4.0322   -0.7700    0.0000 C   0  0  0  0  0  0  0  0  0  0  0  0
    3.7401   -2.2413    0.0000 O   0  0  0  0  0  0  0  0  0  0  0  0
    5.4524   -0.2874    0.0000 C   0  0  0  0  0  0  0  0  0  0  0  0
    6.5805   -1.2760    0.0000 C   0  0  0  0  0  0  0  0  0  0  0  0
    8.0008   -0.7933    0.0000 C   0  0  0  0  0  0  0  0  0  0  0  0
    8.2929    0.6780    0.0000 C   0  0  0  0  0  0  0  0  0  0  0  0
    9.7131    1.1606    0.0000 Cl  0  0  0  0  0  0  0  0  0  0  0  0
    7.1648    1.6666    0.0000 C   0  0  0  0  0  0  0  0  0  0  0  0
    5.7446    1.1839    0.0000 C   0  0  0  0  0  0  0  0  0  0  0  0
   -1.3566   -1.2293    0.0000 C   0  0  0  0  0  0  0  0  0  0  0  0
   -2.7768   -1.7120    0.0000 C   0  0  0  0  0  0  0  0  0  0  0  0
   -7.5813    0.7712    0.0000 C   0  0  0  0  0  0  0  0  0  0  0  0
   -9.0016    0.2886    0.0000 O   0  0  0  0  0  0  0  0  0  0  0  0
   -7.2892    2.2425    0.0000 O   0  0  0  0  0  0  0  0  0  0  0  0
  1  2  1  0
  2  3  1  0
  2  4  1  0
  4  5  1  0
  5  6  2  0
  6  7  1  0
  7  8  2  0
  8  9  1  0
  9 10  1  0
 10 11  1  0
 11 12  1  0
 12 13  2  0
 12 14  1  0
 14 15  2  0
 15 16  1  0
 16 17  2  0
 17 18  1  0
 17 19  1  0
 19 20  2  0
  8 21  1  0
 21 22  2  0
  2 23  1  0
 23 24  2  0
 23 25  1  0
 22  5  1  0
 20 14  1  0
M  END
> <Identifier>
39042.0

> <DILI>
0

$$$$

     RDKit          2D

 22 23  0  0  0  0  0  0  0  0999 V2000
   -7.0966   -1.5849    0.0000 C   0  0  0  0  0  0  0  0  0  0  0  0
   -6.5279   -0.1969    0.0000 C   0  0  0  0  0  0  0  0  0  0  0  0
   -5.9592    1.1911    0.0000 C   0  0  0  0  0  0  0  0  0  0  0  0
   -7.9159    0.3718    0.0000 C   0  0  0  0  0  0  0  0  0  0  0  0
   -5.1399   -0.7656    0.0000 N   0  0  0  0  0  0  0  0  0  0  0  0
   -3.9534    0.1521    0.0000 C   0  0  0  0  0  0  0  0  0  0  0  0
   -2.5654   -0.4166    0.0000 C   0  0  0  0  0  0  0  0  0  0  0  0
   -2.3639   -1.9030    0.0000 O   0  0  0  0  0  0  0  0  0  0  0  0
   -1.3789    0.5011    0.0000 C   0  0  0  0  0  0  0  0  0  0  0  0
    0.0092   -0.0676    0.0000 O   0  0  0  0  0  0  0  0  0  0  0  0
    1.1957    0.8501    0.0000 C   0  0  0  0  0  0  0  0  0  0  0  0
    0.9942    2.3365    0.0000 C   0  0  0  0  0  0  0  0  0  0  0  0
    2.1807    3.2543    0.0000 C   0  0  0  0  0  0  0  0  0  0  0  0
    3.5687    2.6856    0.0000 C   0  0  0  0  0  0  0  0  0  0  0  0
    3.7702    1.1992    0.0000 C   0  0  0  0  0  0  0  0  0  0  0  0
    2.5837    0.2814    0.0000 C   0  0  0  0  0  0  0  0  0  0  0  0
    2.7852   -1.2050    0.0000 C   0  0  0  0  0  0  0  0  0  0  0  0
    4.1732   -1.7737    0.0000 C   0  0  0  0  0  0  0  0  0  0  0  0
    4.3747   -3.2601    0.0000 O   0  0  0  0  0  0  0  0  0  0  0  0
    5.3597   -0.8559    0.0000 C   0  0  0  0  0  0  0  0  0  0  0  0
    6.7477   -1.4246    0.0000 O   0  0  0  0  0  0  0  0  0  0  0  0
    5.1582    0.6305    0.0000 C   0  0  0  0  0  0  0  0  0  0  0  0
  1  2  1  0
  2  3  1  0
  2  4  1  0
  2  5  1  0
  5  6  1  0
  6  7  1  0
  7  8  1  0
  7  9  1  0
  9 10  1  0
 10 11  1  0
 11 12  2  0
 12 13  1  0
 13 14  2  0
 14 15  1  0
 15 16  2  0
 16 17  1  0
 17 18  1  0
 18 19  1  0
 18 20  1  0
 20 21  1  0
 20 22  1  0
 16 11  1  0
 22 15  1  0
M  END
> <Identifier>
39147.0

> <DILI>
0

$$$$

     RDKit          2D

 29 31  0  0  0  0  0  0  0  0999 V2000
   -7.9517    0.3980    0.0000 C   0  0  0  0  0  0  0  0  0  0  0  0
   -7.1419   -0.8647    0.0000 O   0  0  0  0  0  0  0  0  0  0  0  0
   -5.6436   -0.7948    0.0000 C   0  0  0  0  0  0  0  0  0  0  0  0
   -4.9549    0.5378    0.0000 C   0  0  0  0  0  0  0  0  0  0  0  0
   -3.4566    0.6078    0.0000 C   0  0  0  0  0  0  0  0  0  0  0  0
   -2.6468   -0.6549    0.0000 C   0  0  0  0  0  0  0  0  0  0  0  0
   -1.1485   -0.5849    0.0000 C   0  0  0  0  0  0  0  0  0  0  0  0
   -0.4353   -1.9046    0.0000 S   0  0  0  0  0  0  0  0  0  0  0  0
    1.0410   -2.1698    0.0000 C   0  0  0  0  0  0  0  0  0  0  0  0
    1.3335   -3.6410    0.0000 C   0  0  0  0  0  0  0  0  0  0  0  0
    2.7539   -4.1233    0.0000 C   0  0  0  0  0  0  0  0  0  0  0  0
    3.8817   -3.1344    0.0000 C   0  0  0  0  0  0  0  0  0  0  0  0
    3.5893   -1.6632    0.0000 C   0  0  0  0  0  0  0  0  0  0  0  0
    2.1689   -1.1809    0.0000 C   0  0  0  0  0  0  0  0  0  0  0  0
    2.0990    0.3175    0.0000 N   0  0  0  0  0  0  0  0  0  0  0  0
    3.4186    1.0306    0.0000 C   0  0  0  0  0  0  0  0  0  0  0  0
    4.6960    0.2443    0.0000 C   0  0  0  0  0  0  0  0  0  0  0  0
    6.0157    0.9574    0.0000 N   0  0  0  0  0  0  0  0  0  0  0  0
    7.2931    0.1712    0.0000 C   0  0  0  0  0  0  0  0  0  0  0  0
    6.0579    2.4568    0.0000 C   0  0  0  0  0  0  0  0  0  0  0  0
    0.8839    1.1970    0.0000 C   0  0  0  0  0  0  0  0  0  0  0  0
    1.1491    2.6734    0.0000 O   0  0  0  0  0  0  0  0  0  0  0  0
   -0.5613    0.7954    0.0000 C   0  0  0  0  0  0  0  0  0  0  0  0
   -1.5502    1.9233    0.0000 O   0  0  0  0  0  0  0  0  0  0  0  0
   -1.0679    3.3436    0.0000 C   0  0  0  0  0  0  0  0  0  0  0  0
   -2.0568    4.4715    0.0000 C   0  0  0  0  0  0  0  0  0  0  0  0
    0.4033    3.6361    0.0000 O   0  0  0  0  0  0  0  0  0  0  0  0
   -3.3354   -1.9875    0.0000 C   0  0  0  0  0  0  0  0  0  0  0  0
   -4.8338   -2.0574    0.0000 C   0  0  0  0  0  0  0  0  0  0  0  0
  1  2  1  0
  2  3  1  0
  3  4  2  0
  4  5  1  0
  5  6  2  0
  6  7  1  0
  7  8  1  0
  8  9  1  0
  9 10  2  0
 10 11  1  0
 11 12  2  0
 12 13  1  0
 13 14  2  0
 14 15  1  0
 15 16  1  0
 16 17  1  0
 17 18  1  0
 18 19  1  0
 18 20  1  0
 15 21  1  0
 21 22  2  0
 21 23  1  0
 23 24  1  0
 24 25  1  0
 25 26  1  0
 25 27  2  0
  6 28  1  0
 28 29  2  0
 29  3  1  0
 23  7  1  0
 14  9  1  0
M  END
> <Identifier>
39186.0

> <DILI>
1

$$$$

     RDKit          2D

 21 23  0  0  0  0  0  0  0  0999 V2000
   -5.9100    1.0062    0.0000 C   0  0  0  0  0  0  0  0  0  0  0  0
   -4.7784    0.0216    0.0000 C   0  0  0  0  0  0  0  0  0  0  0  0
   -5.0653   -1.4507    0.0000 C   0  0  0  0  0  0  0  0  0  0  0  0
   -3.9337   -2.4353    0.0000 O   0  0  0  0  0  0  0  0  0  0  0  0
   -6.4838   -1.9384    0.0000 O   0  0  0  0  0  0  0  0  0  0  0  0
   -3.3599    0.5093    0.0000 C   0  0  0  0  0  0  0  0  0  0  0  0
   -3.0729    1.9816    0.0000 C   0  0  0  0  0  0  0  0  0  0  0  0
   -1.6544    2.4692    0.0000 C   0  0  0  0  0  0  0  0  0  0  0  0
   -0.5228    1.4846    0.0000 C   0  0  0  0  0  0  0  0  0  0  0  0
    0.9661    1.6666    0.0000 O   0  0  0  0  0  0  0  0  0  0  0  0
    1.5993    0.3069    0.0000 C   0  0  0  0  0  0  0  0  0  0  0  0
    3.0716    0.0199    0.0000 C   0  0  0  0  0  0  0  0  0  0  0  0
    3.5593   -1.3986    0.0000 C   0  0  0  0  0  0  0  0  0  0  0  0
    5.0316   -1.6855    0.0000 C   0  0  0  0  0  0  0  0  0  0  0  0
    6.0162   -0.5539    0.0000 C   0  0  0  0  0  0  0  0  0  0  0  0
    7.4885   -0.8409    0.0000 Cl  0  0  0  0  0  0  0  0  0  0  0  0
    5.5286    0.8646    0.0000 C   0  0  0  0  0  0  0  0  0  0  0  0
    4.0563    1.1515    0.0000 C   0  0  0  0  0  0  0  0  0  0  0  0
    0.5018   -0.7156    0.0000 N   0  0  0  0  0  0  0  0  0  0  0  0
   -0.8098    0.0123    0.0000 C   0  0  0  0  0  0  0  0  0  0  0  0
   -2.2283   -0.4754    0.0000 C   0  0  0  0  0  0  0  0  0  0  0  0
  1  2  1  0
  2  3  1  0
  3  4  2  0
  3  5  1  0
  2  6  1  0
  6  7  2  0
  7  8  1  0
  8  9  2  0
  9 10  1  0
 10 11  1  0
 11 12  1  0
 12 13  2  0
 13 14  1  0
 14 15  2  0
 15 16  1  0
 15 17  1  0
 17 18  2  0
 11 19  2  0
 19 20  1  0
 20 21  2  0
 21  6  1  0
 20  9  1  0
 18 12  1  0
M  END
> <Identifier>
39941.0

> <DILI>
1

$$$$

     RDKit          2D

 26 28  0  0  0  0  0  0  0  0999 V2000
   -4.4463    3.4226    0.0000 C   0  0  0  0  0  0  0  0  0  0  0  0
   -3.8678    2.0387    0.0000 C   0  0  0  0  0  0  0  0  0  0  0  0
   -2.4044    2.3681    0.0000 C   0  0  0  0  0  0  0  0  0  0  0  0
   -5.1303    1.2287    0.0000 C   0  0  0  0  0  0  0  0  0  0  0  0
   -6.6286    1.1584    0.0000 C   0  0  0  0  0  0  0  0  0  0  0  0
   -7.3169   -0.1744    0.0000 C   0  0  0  0  0  0  0  0  0  0  0  0
   -8.8153   -0.2446    0.0000 Cl  0  0  0  0  0  0  0  0  0  0  0  0
   -6.5069   -1.4368    0.0000 Cl  0  0  0  0  0  0  0  0  0  0  0  0
   -3.7975    0.5403    0.0000 C   0  0  0  0  0  0  0  0  0  0  0  0
   -2.9875   -0.7221    0.0000 C   0  0  0  0  0  0  0  0  0  0  0  0
   -3.6758   -2.0549    0.0000 O   0  0  0  0  0  0  0  0  0  0  0  0
   -1.4891   -0.6519    0.0000 O   0  0  0  0  0  0  0  0  0  0  0  0
   -0.6791   -1.9143    0.0000 C   0  0  0  0  0  0  0  0  0  0  0  0
    0.8193   -1.8441    0.0000 C   0  0  0  0  0  0  0  0  0  0  0  0
    1.6293   -3.1066    0.0000 C   0  0  0  0  0  0  0  0  0  0  0  0
    3.1276   -3.0363    0.0000 C   0  0  0  0  0  0  0  0  0  0  0  0
    3.8160   -1.7035    0.0000 C   0  0  0  0  0  0  0  0  0  0  0  0
    3.0059   -0.4411    0.0000 C   0  0  0  0  0  0  0  0  0  0  0  0
    3.6942    0.8917    0.0000 O   0  0  0  0  0  0  0  0  0  0  0  0
    5.1926    0.9620    0.0000 C   0  0  0  0  0  0  0  0  0  0  0  0
    6.0026   -0.3005    0.0000 C   0  0  0  0  0  0  0  0  0  0  0  0
    7.5010   -0.2302    0.0000 C   0  0  0  0  0  0  0  0  0  0  0  0
    8.1893    1.1025    0.0000 C   0  0  0  0  0  0  0  0  0  0  0  0
    7.3793    2.3650    0.0000 C   0  0  0  0  0  0  0  0  0  0  0  0
    5.8809    2.2947    0.0000 C   0  0  0  0  0  0  0  0  0  0  0  0
    1.5076   -0.5113    0.0000 C   0  0  0  0  0  0  0  0  0  0  0  0
  1  2  1  0
  2  3  1  0
  2  4  1  0
  4  5  1  0
  5  6  2  0
  6  7  1  0
  6  8  1  0
  4  9  1  0
  9 10  1  0
 10 11  2  0
 10 12  1  0
 12 13  1  0
 13 14  1  0
 14 15  2  0
 15 16  1  0
 16 17  2  0
 17 18  1  0
 18 19  1  0
 19 20  1  0
 20 21  2  0
 21 22  1  0
 22 23  2  0
 23 24  1  0
 24 25  2  0
 18 26  2  0
  9  2  1  0
 26 14  1  0
 25 20  1  0
M  END
> <Identifier>
40326.0

> <DILI>
0

$$$$

     RDKit          2D

 20 21  0  0  0  0  0  0  0  0999 V2000
   -0.2583   -2.7629    0.0000 O   0  0  0  0  0  0  0  0  0  0  0  0
   -0.1187   -1.2695    0.0000 C   0  0  0  0  0  0  0  0  0  0  0  0
    1.2445   -0.6437    0.0000 C   0  0  0  0  0  0  0  0  0  0  0  0
    2.4681   -1.5113    0.0000 C   0  0  0  0  0  0  0  0  0  0  0  0
    3.8313   -0.8855    0.0000 C   0  0  0  0  0  0  0  0  0  0  0  0
    5.0549   -1.7532    0.0000 O   0  0  0  0  0  0  0  0  0  0  0  0
    3.9710    0.6080    0.0000 C   0  0  0  0  0  0  0  0  0  0  0  0
    5.3342    1.2338    0.0000 O   0  0  0  0  0  0  0  0  0  0  0  0
    2.7474    1.4756    0.0000 C   0  0  0  0  0  0  0  0  0  0  0  0
    2.8870    2.9691    0.0000 O   0  0  0  0  0  0  0  0  0  0  0  0
    1.3842    0.8498    0.0000 C   0  0  0  0  0  0  0  0  0  0  0  0
   -1.3423   -0.4018    0.0000 C   0  0  0  0  0  0  0  0  0  0  0  0
   -1.2026    1.0917    0.0000 C   0  0  0  0  0  0  0  0  0  0  0  0
   -2.4262    1.9594    0.0000 C   0  0  0  0  0  0  0  0  0  0  0  0
   -3.7894    1.3336    0.0000 C   0  0  0  0  0  0  0  0  0  0  0  0
   -5.0130    2.2012    0.0000 O   0  0  0  0  0  0  0  0  0  0  0  0
   -3.9291   -0.1599    0.0000 C   0  0  0  0  0  0  0  0  0  0  0  0
   -5.2923   -0.7857    0.0000 O   0  0  0  0  0  0  0  0  0  0  0  0
   -2.7055   -1.0276    0.0000 C   0  0  0  0  0  0  0  0  0  0  0  0
   -2.8451   -2.5211    0.0000 O   0  0  0  0  0  0  0  0  0  0  0  0
  1  2  2  0
  2  3  1  0
  3  4  2  0
  4  5  1  0
  5  6  1  0
  5  7  2  0
  7  8  1  0
  7  9  1  0
  9 10  1  0
  9 11  2  0
  2 12  1  0
 12 13  2  0
 13 14  1  0
 14 15  2  0
 15 16  1  0
 15 17  1  0
 17 18  1  0
 17 19  2  0
 19 20  1  0
 11  3  1  0
 19 12  1  0
M  END
> <Identifier>
40399.0

> <DILI>
1

$$$$

     RDKit          2D

 19 21  0  0  0  0  0  0  0  0999 V2000
    6.2535   -0.0159    0.0000 O   0  0  0  0  0  0  0  0  0  0  0  0
    5.1216    0.9684    0.0000 C   0  0  0  0  0  0  0  0  0  0  0  0
    3.7032    0.4804    0.0000 C   0  0  0  0  0  0  0  0  0  0  0  0
    2.4747    1.3410    0.0000 O   0  0  0  0  0  0  0  0  0  0  0  0
    1.2765    0.4385    0.0000 C   0  0  0  0  0  0  0  0  0  0  0  0
   -0.1578    0.8773    0.0000 N   0  0  0  0  0  0  0  0  0  0  0  0
   -0.6459    2.2957    0.0000 C   0  0  0  0  0  0  0  0  0  0  0  0
   -2.1457    2.2698    0.0000 N   0  0  0  0  0  0  0  0  0  0  0  0
   -2.5845    0.8354    0.0000 C   0  0  0  0  0  0  0  0  0  0  0  0
   -1.3560   -0.0252    0.0000 C   0  0  0  0  0  0  0  0  0  0  0  0
   -1.2628   -1.5223    0.0000 N   0  0  0  0  0  0  0  0  0  0  0  0
   -2.3752   -2.5285    0.0000 C   0  0  0  0  0  0  0  0  0  0  0  0
   -3.8555   -2.2862    0.0000 N   0  0  0  0  0  0  0  0  0  0  0  0
   -4.5890   -0.9778    0.0000 C   0  0  0  0  0  0  0  0  0  0  0  0
   -4.0234    0.4115    0.0000 C   0  0  0  0  0  0  0  0  0  0  0  0
   -5.0296    1.5239    0.0000 O   0  0  0  0  0  0  0  0  0  0  0  0
    1.7646   -0.9799    0.0000 C   0  0  0  0  0  0  0  0  0  0  0  0
    3.2644   -0.9540    0.0000 C   0  0  0  0  0  0  0  0  0  0  0  0
    4.1669   -2.1521    0.0000 O   0  0  0  0  0  0  0  0  0  0  0  0
  1  2  1  0
  2  3  1  0
  3  4  1  0
  4  5  1  0
  5  6  1  0
  6  7  1  0
  7  8  2  0
  8  9  1  0
  9 10  2  0
 10 11  1  0
 11 12  1  0
 12 13  2  0
 13 14  1  0
 14 15  1  0
 15 16  1  0
  5 17  1  0
 17 18  1  0
 18 19  1  0
 18  3  1  0
 10  6  1  0
 15  9  1  0
M  END
> <Identifier>
40926.0

> <DILI>
1

$$$$

     RDKit          2D

 39 43  0  0  0  0  0  0  0  0999 V2000
   -6.7878   -4.2858    0.0000 C   0  0  0  0  0  0  0  0  0  0  0  0
   -5.7102   -3.2424    0.0000 O   0  0  0  0  0  0  0  0  0  0  0  0
   -6.0750   -1.7874    0.0000 C   0  0  0  0  0  0  0  0  0  0  0  0
   -7.5174   -1.3759    0.0000 C   0  0  0  0  0  0  0  0  0  0  0  0
   -7.8823    0.0791    0.0000 C   0  0  0  0  0  0  0  0  0  0  0  0
   -6.8046    1.1225    0.0000 C   0  0  0  0  0  0  0  0  0  0  0  0
   -5.3622    0.7110    0.0000 C   0  0  0  0  0  0  0  0  0  0  0  0
   -4.9974   -0.7440    0.0000 C   0  0  0  0  0  0  0  0  0  0  0  0
   -3.5549   -1.1556    0.0000 C   0  0  0  0  0  0  0  0  0  0  0  0
   -3.1901   -2.6105    0.0000 O   0  0  0  0  0  0  0  0  0  0  0  0
   -2.4773   -0.1122    0.0000 C   0  0  0  0  0  0  0  0  0  0  0  0
   -1.0349   -0.5237    0.0000 C   0  0  0  0  0  0  0  0  0  0  0  0
   -0.6701   -1.9787    0.0000 O   0  0  0  0  0  0  0  0  0  0  0  0
    0.0428    0.5197    0.0000 C   0  0  0  0  0  0  0  0  0  0  0  0
   -0.3220    1.9747    0.0000 C   0  0  0  0  0  0  0  0  0  0  0  0
   -1.7645    2.3862    0.0000 C   0  0  0  0  0  0  0  0  0  0  0  0
   -2.1293    3.8412    0.0000 O   0  0  0  0  0  0  0  0  0  0  0  0
   -2.8421    1.3428    0.0000 C   0  0  0  0  0  0  0  0  0  0  0  0
   -4.2845    1.7544    0.0000 C   0  0  0  0  0  0  0  0  0  0  0  0
   -4.6493    3.2093    0.0000 O   0  0  0  0  0  0  0  0  0  0  0  0
    0.7556    3.0181    0.0000 C   0  0  0  0  0  0  0  0  0  0  0  0
    2.1980    2.6065    0.0000 C   0  0  0  0  0  0  0  0  0  0  0  0
    2.3529    4.0985    0.0000 O   0  0  0  0  0  0  0  0  0  0  0  0
    3.6942    2.7131    0.0000 C   0  0  0  0  0  0  0  0  0  0  0  0
    4.5347    1.4707    0.0000 O   0  0  0  0  0  0  0  0  0  0  0  0
    4.3500    4.0622    0.0000 C   0  0  0  0  0  0  0  0  0  0  0  0
    5.8462    4.1688    0.0000 O   0  0  0  0  0  0  0  0  0  0  0  0
    2.5628    1.1516    0.0000 C   0  0  0  0  0  0  0  0  0  0  0  0
    1.4852    0.1081    0.0000 C   0  0  0  0  0  0  0  0  0  0  0  0
    1.8500   -1.3468    0.0000 O   0  0  0  0  0  0  0  0  0  0  0  0
    3.2924   -1.7584    0.0000 C   0  0  0  0  0  0  0  0  0  0  0  0
    3.6572   -3.2133    0.0000 C   0  0  0  0  0  0  0  0  0  0  0  0
    5.0997   -3.6249    0.0000 C   0  0  0  0  0  0  0  0  0  0  0  0
    5.4645   -5.0798    0.0000 N   0  0  0  0  0  0  0  0  0  0  0  0
    6.1773   -2.5815    0.0000 C   0  0  0  0  0  0  0  0  0  0  0  0
    7.6197   -2.9930    0.0000 O   0  0  0  0  0  0  0  0  0  0  0  0
    5.8125   -1.1265    0.0000 C   0  0  0  0  0  0  0  0  0  0  0  0
    6.8901   -0.0831    0.0000 C   0  0  0  0  0  0  0  0  0  0  0  0
    4.3701   -0.7150    0.0000 O   0  0  0  0  0  0  0  0  0  0  0  0
  1  2  1  0
  2  3  1  0
  3  4  2  0
  4  5  1  0
  5  6  2  0
  6  7  1  0
  7  8  2  0
  8  9  1  0
  9 10  2  0
  9 11  1  0
 11 12  2  0
 12 13  1  0
 12 14  1  0
 14 15  2  0
 15 16  1  0
 16 17  1  0
 16 18  2  0
 18 19  1  0
 19 20  2  0
 15 21  1  0
 21 22  1  0
 22 23  1  0
 22 24  1  0
 24 25  2  0
 24 26  1  0
 26 27  1  0
 22 28  1  0
 28 29  1  0
 29 30  1  0
 30 31  1  0
 31 32  1  0
 32 33  1  0
 33 34  1  0
 33 35  1  0
 35 36  1  0
 35 37  1  0
 37 38  1  0
 37 39  1  0
  8  3  1  0
 18 11  1  0
 39 31  1  0
 19  7  1  0
 29 14  1  0
M  END
> <Identifier>
41867.0

> <DILI>
1

$$$$

     RDKit          2D

 34 37  0  0  0  0  0  0  0  0999 V2000
  -10.0144    3.7308    0.0000 C   0  0  0  0  0  0  0  0  0  0  0  0
   -8.6257    3.1640    0.0000 N   0  0  0  0  0  0  0  0  0  0  0  0
   -7.4404    4.0833    0.0000 C   0  0  0  0  0  0  0  0  0  0  0  0
   -8.4221    1.6779    0.0000 C   0  0  0  0  0  0  0  0  0  0  0  0
   -7.0334    1.1110    0.0000 C   0  0  0  0  0  0  0  0  0  0  0  0
   -6.8299   -0.3751    0.0000 N   0  0  0  0  0  0  0  0  0  0  0  0
   -7.9125   -1.4132    0.0000 N   0  0  0  0  0  0  0  0  0  0  0  0
   -7.2598   -2.7638    0.0000 N   0  0  0  0  0  0  0  0  0  0  0  0
   -5.7736   -2.5602    0.0000 N   0  0  0  0  0  0  0  0  0  0  0  0
   -5.5079   -1.0840    0.0000 C   0  0  0  0  0  0  0  0  0  0  0  0
   -4.1574   -0.4312    0.0000 S   0  0  0  0  0  0  0  0  0  0  0  0
   -2.9168   -1.2744    0.0000 C   0  0  0  0  0  0  0  0  0  0  0  0
   -1.5663   -0.6216    0.0000 C   0  0  0  0  0  0  0  0  0  0  0  0
   -0.3258   -1.4647    0.0000 C   0  0  0  0  0  0  0  0  0  0  0  0
   -0.4357   -2.9607    0.0000 C   0  0  0  0  0  0  0  0  0  0  0  0
   -1.7862   -3.6135    0.0000 O   0  0  0  0  0  0  0  0  0  0  0  0
    0.8049   -3.8039    0.0000 O   0  0  0  0  0  0  0  0  0  0  0  0
    1.0248   -0.8120    0.0000 N   0  0  0  0  0  0  0  0  0  0  0  0
    2.5207   -0.9219    0.0000 C   0  0  0  0  0  0  0  0  0  0  0  0
    3.5008   -2.0574    0.0000 O   0  0  0  0  0  0  0  0  0  0  0  0
    2.6306    0.5741    0.0000 C   0  0  0  0  0  0  0  0  0  0  0  0
    3.7662    1.5542    0.0000 N   0  0  0  0  0  0  0  0  0  0  0  0
    5.1827    1.0608    0.0000 C   0  0  0  0  0  0  0  0  0  0  0  0
    5.4637   -0.4126    0.0000 O   0  0  0  0  0  0  0  0  0  0  0  0
    6.3183    2.0409    0.0000 C   0  0  0  0  0  0  0  0  0  0  0  0
    7.7348    1.5475    0.0000 C   0  0  0  0  0  0  0  0  0  0  0  0
    8.9666    2.4035    0.0000 C   0  0  0  0  0  0  0  0  0  0  0  0
   10.1613    1.4966    0.0000 S   0  0  0  0  0  0  0  0  0  0  0  0
    9.6680    0.0801    0.0000 C   0  0  0  0  0  0  0  0  0  0  0  0
   10.5240   -1.1517    0.0000 N   0  0  0  0  0  0  0  0  0  0  0  0
    8.1683    0.1115    0.0000 N   0  0  0  0  0  0  0  0  0  0  0  0
    1.1347    0.6840    0.0000 C   0  0  0  0  0  0  0  0  0  0  0  0
   -0.1059    1.5272    0.0000 S   0  0  0  0  0  0  0  0  0  0  0  0
   -1.4564    0.8744    0.0000 C   0  0  0  0  0  0  0  0  0  0  0  0
  1  2  1  0
  2  3  1  0
  2  4  1  0
  4  5  1  0
  5  6  1  0
  6  7  1  0
  7  8  2  0
  8  9  1  0
  9 10  2  0
 10 11  1  0
 11 12  1  0
 12 13  1  0
 13 14  2  0
 14 15  1  0
 15 16  2  0
 15 17  1  0
 14 18  1  0
 18 19  1  0
 19 20  2  0
 19 21  1  0
 21 22  1  0
 22 23  1  0
 23 24  2  0
 23 25  1  0
 25 26  1  0
 26 27  2  0
 27 28  1  0
 28 29  1  0
 29 30  1  0
 29 31  2  0
 21 32  1  0
 32 33  1  0
 33 34  1  0
 10  6  1  0
 34 13  1  0
 32 18  1  0
 31 26  1  0
M  END
> <Identifier>
43708.0

> <DILI>
1

$$$$

     RDKit          2D

 36 40  0  0  0  0  0  0  0  0999 V2000
  -11.6071    0.8628    0.0000 C   0  0  0  0  0  0  0  0  0  0  0  0
  -10.6630   -0.3028    0.0000 C   0  0  0  0  0  0  0  0  0  0  0  0
  -11.2004   -1.7033    0.0000 O   0  0  0  0  0  0  0  0  0  0  0  0
   -9.1815   -0.0680    0.0000 N   0  0  0  0  0  0  0  0  0  0  0  0
   -8.6440    1.3324    0.0000 C   0  0  0  0  0  0  0  0  0  0  0  0
   -7.1625    1.5672    0.0000 C   0  0  0  0  0  0  0  0  0  0  0  0
   -6.2184    0.4016    0.0000 N   0  0  0  0  0  0  0  0  0  0  0  0
   -4.7369    0.6364    0.0000 C   0  0  0  0  0  0  0  0  0  0  0  0
   -3.7928   -0.5292    0.0000 C   0  0  0  0  0  0  0  0  0  0  0  0
   -2.3113   -0.2944    0.0000 C   0  0  0  0  0  0  0  0  0  0  0  0
   -1.7739    1.1060    0.0000 C   0  0  0  0  0  0  0  0  0  0  0  0
   -0.2924    1.3408    0.0000 O   0  0  0  0  0  0  0  0  0  0  0  0
    0.6517    0.1752    0.0000 C   0  0  0  0  0  0  0  0  0  0  0  0
    2.1332    0.4100    0.0000 C   0  0  0  0  0  0  0  0  0  0  0  0
    2.8141    1.7466    0.0000 C   0  0  0  0  0  0  0  0  0  0  0  0
    4.2956    1.5121    0.0000 O   0  0  0  0  0  0  0  0  0  0  0  0
    4.5304    0.0306    0.0000 C   0  0  0  0  0  0  0  0  0  0  0  0
    5.0681   -1.3697    0.0000 C   0  0  0  0  0  0  0  0  0  0  0  0
    4.1243   -2.5355    0.0000 N   0  0  0  0  0  0  0  0  0  0  0  0
    4.5126   -3.9844    0.0000 C   0  0  0  0  0  0  0  0  0  0  0  0
    3.2547   -4.8015    0.0000 C   0  0  0  0  0  0  0  0  0  0  0  0
    2.0889   -3.8576    0.0000 N   0  0  0  0  0  0  0  0  0  0  0  0
    2.6263   -2.4572    0.0000 C   0  0  0  0  0  0  0  0  0  0  0  0
    5.9793    0.4190    0.0000 C   0  0  0  0  0  0  0  0  0  0  0  0
    7.0400   -0.6416    0.0000 C   0  0  0  0  0  0  0  0  0  0  0  0
    8.4889   -0.2532    0.0000 C   0  0  0  0  0  0  0  0  0  0  0  0
    8.8770    1.1957    0.0000 C   0  0  0  0  0  0  0  0  0  0  0  0
   10.3258    1.5841    0.0000 Cl  0  0  0  0  0  0  0  0  0  0  0  0
    7.8162    2.2563    0.0000 C   0  0  0  0  0  0  0  0  0  0  0  0
    6.3673    1.8679    0.0000 C   0  0  0  0  0  0  0  0  0  0  0  0
    5.3066    2.9284    0.0000 Cl  0  0  0  0  0  0  0  0  0  0  0  0
    3.1940   -0.6505    0.0000 O   0  0  0  0  0  0  0  0  0  0  0  0
   -2.7180    2.2716    0.0000 C   0  0  0  0  0  0  0  0  0  0  0  0
   -4.1995    2.0368    0.0000 C   0  0  0  0  0  0  0  0  0  0  0  0
   -6.7558   -0.9988    0.0000 C   0  0  0  0  0  0  0  0  0  0  0  0
   -8.2373   -1.2337    0.0000 C   0  0  0  0  0  0  0  0  0  0  0  0
  1  2  1  0
  2  3  2  0
  2  4  1  0
  4  5  1  0
  5  6  1  0
  6  7  1  0
  7  8  1  0
  8  9  2  0
  9 10  1  0
 10 11  2  0
 11 12  1  0
 12 13  1  0
 13 14  1  0
 14 15  1  0
 15 16  1  0
 16 17  1  0
 17 18  1  0
 18 19  1  0
 19 20  1  0
 20 21  2  0
 21 22  1  0
 22 23  2  0
 17 24  1  0
 24 25  2  0
 25 26  1  0
 26 27  2  0
 27 28  1  0
 27 29  1  0
 29 30  2  0
 30 31  1  0
 17 32  1  0
 11 33  1  0
 33 34  2  0
  7 35  1  0
 35 36  1  0
 36  4  1  0
 34  8  1  0
 32 14  1  0
 23 19  1  0
 30 24  1  0
M  END
> <Identifier>
47576.0

> <DILI>
1

$$$$

     RDKit          2D

 17 19  0  0  0  0  0  0  0  0999 V2000
   -4.9643   -1.3209    0.0000 O   0  0  0  0  0  0  0  0  0  0  0  0
   -3.8525   -0.3141    0.0000 C   0  0  0  0  0  0  0  0  0  0  0  0
   -4.1686    1.1523    0.0000 N   0  0  0  0  0  0  0  0  0  0  0  0
   -3.0567    2.1591    0.0000 C   0  0  0  0  0  0  0  0  0  0  0  0
   -1.6288    1.6997    0.0000 N   0  0  0  0  0  0  0  0  0  0  0  0
   -1.3128    0.2334    0.0000 C   0  0  0  0  0  0  0  0  0  0  0  0
   -2.4246   -0.7735    0.0000 C   0  0  0  0  0  0  0  0  0  0  0  0
   -1.8106   -2.1421    0.0000 N   0  0  0  0  0  0  0  0  0  0  0  0
   -0.3192   -1.9810    0.0000 C   0  0  0  0  0  0  0  0  0  0  0  0
   -0.0116   -0.5129    0.0000 N   0  0  0  0  0  0  0  0  0  0  0  0
    1.3570    0.1011    0.0000 C   0  0  0  0  0  0  0  0  0  0  0  0
    1.6647    1.5692    0.0000 C   0  0  0  0  0  0  0  0  0  0  0  0
    3.1560    1.7303    0.0000 C   0  0  0  0  0  0  0  0  0  0  0  0
    3.7700    0.3617    0.0000 C   0  0  0  0  0  0  0  0  0  0  0  0
    5.2381    0.0540    0.0000 C   0  0  0  0  0  0  0  0  0  0  0  0
    5.7057   -1.3712    0.0000 O   0  0  0  0  0  0  0  0  0  0  0  0
    2.6582   -0.6452    0.0000 O   0  0  0  0  0  0  0  0  0  0  0  0
  1  2  2  0
  2  3  1  0
  3  4  2  0
  4  5  1  0
  5  6  1  0
  6  7  2  0
  7  8  1  0
  8  9  2  0
  9 10  1  0
 10 11  1  0
 11 12  1  0
 12 13  1  0
 13 14  1  0
 14 15  1  0
 15 16  1  0
 14 17  1  0
  7  2  1  0
 17 11  1  0
 10  6  1  0
M  END
> <Identifier>
50599.0

> <DILI>
1

$$$$

     RDKit          2D

 29 31  0  0  0  0  0  0  0  0999 V2000
    3.0972   -3.1264    0.0000 C   0  0  0  0  0  0  0  0  0  0  0  0
    1.7312   -2.5068    0.0000 C   0  0  0  0  0  0  0  0  0  0  0  0
    0.5116   -3.3800    0.0000 C   0  0  0  0  0  0  0  0  0  0  0  0
    0.6580   -4.8728    0.0000 C   0  0  0  0  0  0  0  0  0  0  0  0
   -0.8545   -2.7604    0.0000 C   0  0  0  0  0  0  0  0  0  0  0  0
   -2.0741   -3.6336    0.0000 O   0  0  0  0  0  0  0  0  0  0  0  0
   -1.0009   -1.2676    0.0000 O   0  0  0  0  0  0  0  0  0  0  0  0
   -2.3670   -0.6479    0.0000 C   0  0  0  0  0  0  0  0  0  0  0  0
   -3.5866   -1.5212    0.0000 C   0  0  0  0  0  0  0  0  0  0  0  0
   -4.9526   -0.9016    0.0000 C   0  0  0  0  0  0  0  0  0  0  0  0
   -6.1722   -1.7748    0.0000 C   0  0  0  0  0  0  0  0  0  0  0  0
   -5.0990    0.5913    0.0000 C   0  0  0  0  0  0  0  0  0  0  0  0
   -3.8794    1.4645    0.0000 C   0  0  0  0  0  0  0  0  0  0  0  0
   -4.0259    2.9573    0.0000 C   0  0  0  0  0  0  0  0  0  0  0  0
   -2.8062    3.8306    0.0000 C   0  0  0  0  0  0  0  0  0  0  0  0
   -1.4402    3.2110    0.0000 C   0  0  0  0  0  0  0  0  0  0  0  0
   -0.2206    4.0842    0.0000 C   0  0  0  0  0  0  0  0  0  0  0  0
   -1.2938    1.7181    0.0000 C   0  0  0  0  0  0  0  0  0  0  0  0
    0.0723    1.0985    0.0000 C   0  0  0  0  0  0  0  0  0  0  0  0
    1.2919    1.9717    0.0000 C   0  0  0  0  0  0  0  0  0  0  0  0
    2.6580    1.3521    0.0000 C   0  0  0  0  0  0  0  0  0  0  0  0
    3.8776    2.2254    0.0000 C   0  0  0  0  0  0  0  0  0  0  0  0
    5.2436    1.6058    0.0000 C   0  0  0  0  0  0  0  0  0  0  0  0
    6.4632    2.4790    0.0000 O   0  0  0  0  0  0  0  0  0  0  0  0
    5.3901    0.1129    0.0000 C   0  0  0  0  0  0  0  0  0  0  0  0
    4.1704   -0.7603    0.0000 C   0  0  0  0  0  0  0  0  0  0  0  0
    4.3169   -2.2531    0.0000 O   0  0  0  0  0  0  0  0  0  0  0  0
    2.8044   -0.1407    0.0000 O   0  0  0  0  0  0  0  0  0  0  0  0
   -2.5134    0.8449    0.0000 C   0  0  0  0  0  0  0  0  0  0  0  0
  1  2  1  0
  2  3  1  0
  3  4  1  0
  3  5  1  0
  5  6  2  0
  5  7  1  0
  7  8  1  0
  8  9  1  0
  9 10  1  0
 10 11  1  0
 10 12  1  0
 12 13  2  0
 13 14  1  0
 14 15  2  0
 15 16  1  0
 16 17  1  0
 16 18  1  0
 18 19  1  0
 19 20  1  0
 20 21  1  0
 21 22  1  0
 22 23  1  0
 23 24  1  0
 23 25  1  0
 25 26  1  0
 26 27  2  0
 26 28  1  0
 18 29  1  0
 29  8  1  0
 29 13  1  0
 28 21  1  0
M  END
> <Identifier>
53232.0

> <DILI>
0

$$$$

     RDKit          2D

 24 25  0  0  0  0  0  0  0  0999 V2000
   -5.2016   -2.7843    0.0000 C   0  0  0  0  0  0  0  0  0  0  0  0
   -4.7290   -1.3607    0.0000 O   0  0  0  0  0  0  0  0  0  0  0  0
   -3.2598   -1.0581    0.0000 C   0  0  0  0  0  0  0  0  0  0  0  0
   -2.2632   -2.1792    0.0000 C   0  0  0  0  0  0  0  0  0  0  0  0
   -0.7941   -1.8767    0.0000 C   0  0  0  0  0  0  0  0  0  0  0  0
   -0.3215   -0.4530    0.0000 C   0  0  0  0  0  0  0  0  0  0  0  0
    1.1477   -0.1505    0.0000 C   0  0  0  0  0  0  0  0  0  0  0  0
    2.1443   -1.2716    0.0000 C   0  0  0  0  0  0  0  0  0  0  0  0
    1.6717   -2.6952    0.0000 S   0  0  0  0  0  0  0  0  0  0  0  0
    3.6135   -0.9690    0.0000 N   0  0  0  0  0  0  0  0  0  0  0  0
    4.6101   -2.0901    0.0000 C   0  0  0  0  0  0  0  0  0  0  0  0
    4.0860    0.4546    0.0000 C   0  0  0  0  0  0  0  0  0  0  0  0
    5.5552    0.7572    0.0000 C   0  0  0  0  0  0  0  0  0  0  0  0
    6.5518   -0.3639    0.0000 O   0  0  0  0  0  0  0  0  0  0  0  0
    6.0278    2.1808    0.0000 O   0  0  0  0  0  0  0  0  0  0  0  0
    1.6203    1.2731    0.0000 C   0  0  0  0  0  0  0  0  0  0  0  0
    0.6237    2.3942    0.0000 C   0  0  0  0  0  0  0  0  0  0  0  0
   -0.8455    2.0916    0.0000 C   0  0  0  0  0  0  0  0  0  0  0  0
   -1.3181    0.6680    0.0000 C   0  0  0  0  0  0  0  0  0  0  0  0
   -2.7873    0.3655    0.0000 C   0  0  0  0  0  0  0  0  0  0  0  0
   -3.7839    1.4865    0.0000 C   0  0  0  0  0  0  0  0  0  0  0  0
   -4.7805    2.6076    0.0000 F   0  0  0  0  0  0  0  0  0  0  0  0
   -4.9049    0.4899    0.0000 F   0  0  0  0  0  0  0  0  0  0  0  0
   -2.6628    2.4831    0.0000 F   0  0  0  0  0  0  0  0  0  0  0  0
  1  2  1  0
  2  3  1  0
  3  4  2  0
  4  5  1  0
  5  6  2  0
  6  7  1  0
  7  8  1  0
  8  9  2  0
  8 10  1  0
 10 11  1  0
 10 12  1  0
 12 13  1  0
 13 14  2  0
 13 15  1  0
  7 16  2  0
 16 17  1  0
 17 18  2  0
 18 19  1  0
 19 20  2  0
 20 21  1  0
 21 22  1  0
 21 23  1  0
 21 24  1  0
 20  3  1  0
 19  6  1  0
M  END
> <Identifier>
53359.0

> <DILI>
1

$$$$

     RDKit          2D

 30 32  0  0  0  0  0  0  0  0999 V2000
   -4.4678    2.5901    0.0000 C   0  0  0  0  0  0  0  0  0  0  0  0
   -3.5392    1.4121    0.0000 C   0  0  0  0  0  0  0  0  0  0  0  0
   -2.0547    1.6273    0.0000 C   0  0  0  0  0  0  0  0  0  0  0  0
   -2.2699    3.1118    0.0000 C   0  0  0  0  0  0  0  0  0  0  0  0
   -1.8395    0.1428    0.0000 C   0  0  0  0  0  0  0  0  0  0  0  0
   -0.5702    1.8425    0.0000 C   0  0  0  0  0  0  0  0  0  0  0  0
   -0.0144    3.2357    0.0000 O   0  0  0  0  0  0  0  0  0  0  0  0
    0.3584    0.6645    0.0000 O   0  0  0  0  0  0  0  0  0  0  0  0
    1.8429    0.8797    0.0000 C   0  0  0  0  0  0  0  0  0  0  0  0
    2.3987    2.2729    0.0000 C   0  0  0  0  0  0  0  0  0  0  0  0
    3.8832    2.4881    0.0000 C   0  0  0  0  0  0  0  0  0  0  0  0
    4.4391    3.8813    0.0000 C   0  0  0  0  0  0  0  0  0  0  0  0
    4.8118    1.3101    0.0000 C   0  0  0  0  0  0  0  0  0  0  0  0
    4.2559   -0.0831    0.0000 C   0  0  0  0  0  0  0  0  0  0  0  0
    5.1846   -1.2611    0.0000 C   0  0  0  0  0  0  0  0  0  0  0  0
    4.6287   -2.6543    0.0000 C   0  0  0  0  0  0  0  0  0  0  0  0
    3.1442   -2.8695    0.0000 C   0  0  0  0  0  0  0  0  0  0  0  0
    2.5883   -4.2627    0.0000 C   0  0  0  0  0  0  0  0  0  0  0  0
    2.2156   -1.6915    0.0000 C   0  0  0  0  0  0  0  0  0  0  0  0
    0.7311   -1.9067    0.0000 C   0  0  0  0  0  0  0  0  0  0  0  0
   -0.1975   -0.7287    0.0000 C   0  0  0  0  0  0  0  0  0  0  0  0
   -1.6820   -0.9439    0.0000 C   0  0  0  0  0  0  0  0  0  0  0  0
   -2.6106    0.2341    0.0000 C   0  0  0  0  0  0  0  0  0  0  0  0
   -4.0951    0.0189    0.0000 C   0  0  0  0  0  0  0  0  0  0  0  0
   -5.0237    1.1969    0.0000 O   0  0  0  0  0  0  0  0  0  0  0  0
   -4.6509   -1.3743    0.0000 C   0  0  0  0  0  0  0  0  0  0  0  0
   -3.7223   -2.5523    0.0000 C   0  0  0  0  0  0  0  0  0  0  0  0
   -4.2782   -3.9455    0.0000 O   0  0  0  0  0  0  0  0  0  0  0  0
   -2.2379   -2.3371    0.0000 O   0  0  0  0  0  0  0  0  0  0  0  0
    2.7715   -0.2983    0.0000 C   0  0  0  0  0  0  0  0  0  0  0  0
  1  2  1  0
  2  3  1  0
  3  4  1  0
  3  5  1  0
  3  6  1  0
  6  7  2  0
  6  8  1  0
  8  9  1  0
  9 10  1  0
 10 11  1  0
 11 12  1  0
 11 13  1  0
 13 14  2  0
 14 15  1  0
 15 16  2  0
 16 17  1  0
 17 18  1  0
 17 19  1  0
 19 20  1  0
 20 21  1  0
 21 22  1  0
 22 23  1  0
 23 24  1  0
 24 25  1  0
 24 26  1  0
 26 27  1  0
 27 28  2  0
 27 29  1  0
 19 30  1  0
 30  9  1  0
 30 14  1  0
 29 22  1  0
M  END
> <Identifier>
54454.0

> <DILI>
0

$$$$

     RDKit          2D

 26 26  0  0  0  0  0  0  0  0999 V2000
   -3.4836   -5.9007    0.0000 C   0  0  0  0  0  0  0  0  0  0  0  0
   -2.1446   -5.2246    0.0000 N   0  0  0  0  0  0  0  0  0  0  0  0
   -0.8896   -6.0462    0.0000 C   0  0  0  0  0  0  0  0  0  0  0  0
   -2.0606   -3.7270    0.0000 C   0  0  0  0  0  0  0  0  0  0  0  0
   -3.3156   -2.9054    0.0000 O   0  0  0  0  0  0  0  0  0  0  0  0
   -0.7216   -3.0509    0.0000 O   0  0  0  0  0  0  0  0  0  0  0  0
   -0.6376   -1.5533    0.0000 C   0  0  0  0  0  0  0  0  0  0  0  0
   -1.8926   -0.7317    0.0000 C   0  0  0  0  0  0  0  0  0  0  0  0
   -1.8086    0.7660    0.0000 C   0  0  0  0  0  0  0  0  0  0  0  0
   -3.0636    1.5875    0.0000 O   0  0  0  0  0  0  0  0  0  0  0  0
   -2.9795    3.0852    0.0000 C   0  0  0  0  0  0  0  0  0  0  0  0
   -1.6405    3.7613    0.0000 O   0  0  0  0  0  0  0  0  0  0  0  0
   -4.2345    3.9068    0.0000 N   0  0  0  0  0  0  0  0  0  0  0  0
   -4.1505    5.4044    0.0000 C   0  0  0  0  0  0  0  0  0  0  0  0
   -5.5735    3.2307    0.0000 C   0  0  0  0  0  0  0  0  0  0  0  0
   -0.4696    1.4420    0.0000 C   0  0  0  0  0  0  0  0  0  0  0  0
    0.7854    0.6204    0.0000 C   0  0  0  0  0  0  0  0  0  0  0  0
    2.1244    1.2965    0.0000 C   0  0  0  0  0  0  0  0  0  0  0  0
    2.2084    2.7942    0.0000 O   0  0  0  0  0  0  0  0  0  0  0  0
    3.3794    0.4749    0.0000 C   0  0  0  0  0  0  0  0  0  0  0  0
    4.7184    1.1510    0.0000 N   0  0  0  0  0  0  0  0  0  0  0  0
    5.9734    0.3294    0.0000 C   0  0  0  0  0  0  0  0  0  0  0  0
    6.7950    1.5844    0.0000 C   0  0  0  0  0  0  0  0  0  0  0  0
    5.1518   -0.9256    0.0000 C   0  0  0  0  0  0  0  0  0  0  0  0
    7.2284   -0.4922    0.0000 C   0  0  0  0  0  0  0  0  0  0  0  0
    0.7014   -0.8772    0.0000 C   0  0  0  0  0  0  0  0  0  0  0  0
  1  2  1  0
  2  3  1  0
  2  4  1  0
  4  5  2  0
  4  6  1  0
  6  7  1  0
  7  8  2  0
  8  9  1  0
  9 10  1  0
 10 11  1  0
 11 12  2  0
 11 13  1  0
 13 14  1  0
 13 15  1  0
  9 16  2  0
 16 17  1  0
 17 18  1  0
 18 19  1  0
 18 20  1  0
 20 21  1  0
 21 22  1  0
 22 23  1  0
 22 24  1  0
 22 25  1  0
 17 26  2  0
 26  7  1  0
M  END
> <Identifier>
54766.0

> <DILI>
0

$$$$

     RDKit          2D

 32 34  0  0  0  0  0  0  0  0999 V2000
    5.6505   -4.1706    0.0000 C   0  0  0  0  0  0  0  0  0  0  0  0
    4.1605   -3.9976    0.0000 C   0  0  0  0  0  0  0  0  0  0  0  0
    3.5653   -2.6208    0.0000 O   0  0  0  0  0  0  0  0  0  0  0  0
    2.0753   -2.4478    0.0000 C   0  0  0  0  0  0  0  0  0  0  0  0
    1.1805   -3.6517    0.0000 O   0  0  0  0  0  0  0  0  0  0  0  0
    1.4801   -1.0709    0.0000 C   0  0  0  0  0  0  0  0  0  0  0  0
    2.3749    0.1330    0.0000 C   0  0  0  0  0  0  0  0  0  0  0  0
    3.8649   -0.0400    0.0000 C   0  0  0  0  0  0  0  0  0  0  0  0
    4.7597    1.1638    0.0000 C   0  0  0  0  0  0  0  0  0  0  0  0
    6.2497    0.9909    0.0000 C   0  0  0  0  0  0  0  0  0  0  0  0
    7.1445    2.1947    0.0000 C   0  0  0  0  0  0  0  0  0  0  0  0
    6.5493    3.5716    0.0000 C   0  0  0  0  0  0  0  0  0  0  0  0
    5.0593    3.7446    0.0000 C   0  0  0  0  0  0  0  0  0  0  0  0
    4.1645    2.5407    0.0000 C   0  0  0  0  0  0  0  0  0  0  0  0
   -0.0099   -0.8979    0.0000 N   0  0  0  0  0  0  0  0  0  0  0  0
   -0.9047   -2.1018    0.0000 C   0  0  0  0  0  0  0  0  0  0  0  0
   -0.3095   -3.4787    0.0000 C   0  0  0  0  0  0  0  0  0  0  0  0
   -2.3947   -1.9288    0.0000 C   0  0  0  0  0  0  0  0  0  0  0  0
   -3.2895   -3.1327    0.0000 O   0  0  0  0  0  0  0  0  0  0  0  0
   -2.9899   -0.5520    0.0000 N   0  0  0  0  0  0  0  0  0  0  0  0
   -2.0950    0.6519    0.0000 C   0  0  0  0  0  0  0  0  0  0  0  0
   -2.6902    2.0288    0.0000 C   0  0  0  0  0  0  0  0  0  0  0  0
   -1.7954    3.2327    0.0000 C   0  0  0  0  0  0  0  0  0  0  0  0
   -2.3906    4.6095    0.0000 C   0  0  0  0  0  0  0  0  0  0  0  0
   -3.8806    4.7825    0.0000 C   0  0  0  0  0  0  0  0  0  0  0  0
   -4.7754    3.5786    0.0000 C   0  0  0  0  0  0  0  0  0  0  0  0
   -4.1802    2.2018    0.0000 C   0  0  0  0  0  0  0  0  0  0  0  0
   -5.0750    0.9979    0.0000 C   0  0  0  0  0  0  0  0  0  0  0  0
   -4.4798   -0.3790    0.0000 C   0  0  0  0  0  0  0  0  0  0  0  0
   -5.3747   -1.5829    0.0000 C   0  0  0  0  0  0  0  0  0  0  0  0
   -4.7795   -2.9597    0.0000 O   0  0  0  0  0  0  0  0  0  0  0  0
   -6.8646   -1.4099    0.0000 O   0  0  0  0  0  0  0  0  0  0  0  0
  1  2  1  0
  2  3  1  0
  3  4  1  0
  4  5  2  0
  4  6  1  0
  6  7  1  0
  7  8  1  0
  8  9  1  0
  9 10  2  0
 10 11  1  0
 11 12  2  0
 12 13  1  0
 13 14  2  0
  6 15  1  0
 15 16  1  0
 16 17  1  0
 16 18  1  0
 18 19  2  0
 18 20  1  0
 20 21  1  0
 21 22  1  0
 22 23  2  0
 23 24  1  0
 24 25  2  0
 25 26  1  0
 26 27  2  0
 27 28  1  0
 28 29  1  0
 29 30  1  0
 30 31  2  0
 30 32  1  0
 14  9  1  0
 29 20  1  0
 27 22  1  0
M  END
> <Identifier>
54892.0

> <DILI>
1

$$$$

     RDKit          2D

 52 54  0  0  0  0  0  0  0  0999 V2000
    3.3508   -6.5876    0.0000 C   0  0  0  0  0  0  0  0  0  0  0  0
    3.5573   -5.1019    0.0000 C   0  0  0  0  0  0  0  0  0  0  0  0
    2.3738   -4.1802    0.0000 C   0  0  0  0  0  0  0  0  0  0  0  0
    3.0293   -2.8310    0.0000 O   0  0  0  0  0  0  0  0  0  0  0  0
    3.0793   -1.3319    0.0000 C   0  0  0  0  0  0  0  0  0  0  0  0
    4.5561   -1.0691    0.0000 O   0  0  0  0  0  0  0  0  0  0  0  0
    2.5152    0.0580    0.0000 C   0  0  0  0  0  0  0  0  0  0  0  0
    3.7831    0.5217    0.0000 C   0  0  0  0  0  0  0  0  0  0  0  0
    1.4346    1.0983    0.0000 C   0  0  0  0  0  0  0  0  0  0  0  0
    2.2275    2.3717    0.0000 O   0  0  0  0  0  0  0  0  0  0  0  0
    3.7267    2.3216    0.0000 C   0  0  0  0  0  0  0  0  0  0  0  0
    4.5196    3.5949    0.0000 C   0  0  0  0  0  0  0  0  0  0  0  0
    6.0187    3.5449    0.0000 C   0  0  0  0  0  0  0  0  0  0  0  0
    7.4446    4.0107    0.0000 C   0  0  0  0  0  0  0  0  0  0  0  0
    5.8077    5.0300    0.0000 O   0  0  0  0  0  0  0  0  0  0  0  0
    6.9882    5.9553    0.0000 C   0  0  0  0  0  0  0  0  0  0  0  0
    6.7250    2.2216    0.0000 C   0  0  0  0  0  0  0  0  0  0  0  0
    8.2242    2.1716    0.0000 O   0  0  0  0  0  0  0  0  0  0  0  0
    5.9321    0.9483    0.0000 C   0  0  0  0  0  0  0  0  0  0  0  0
    6.6384   -0.3750    0.0000 C   0  0  0  0  0  0  0  0  0  0  0  0
    4.4329    0.9983    0.0000 O   0  0  0  0  0  0  0  0  0  0  0  0
    0.0243    1.6092    0.0000 C   0  0  0  0  0  0  0  0  0  0  0  0
    0.2307    3.0949    0.0000 C   0  0  0  0  0  0  0  0  0  0  0  0
   -1.4719    1.5022    0.0000 C   0  0  0  0  0  0  0  0  0  0  0  0
   -1.8876    2.9435    0.0000 O   0  0  0  0  0  0  0  0  0  0  0  0
   -3.3436    3.3041    0.0000 C   0  0  0  0  0  0  0  0  0  0  0  0
   -3.7593    4.7453    0.0000 O   0  0  0  0  0  0  0  0  0  0  0  0
   -5.2153    5.1060    0.0000 C   0  0  0  0  0  0  0  0  0  0  0  0
   -5.6310    6.5472    0.0000 C   0  0  0  0  0  0  0  0  0  0  0  0
   -6.2556    4.0253    0.0000 C   0  0  0  0  0  0  0  0  0  0  0  0
   -5.8399    2.5841    0.0000 C   0  0  0  0  0  0  0  0  0  0  0  0
   -6.8803    1.5035    0.0000 N   0  0  0  0  0  0  0  0  0  0  0  0
   -8.3363    1.8641    0.0000 C   0  0  0  0  0  0  0  0  0  0  0  0
   -6.4646    0.0622    0.0000 C   0  0  0  0  0  0  0  0  0  0  0  0
   -4.3839    2.2235    0.0000 C   0  0  0  0  0  0  0  0  0  0  0  0
   -4.2580    1.4363    0.0000 O   0  0  0  0  0  0  0  0  0  0  0  0
   -2.7953    0.7960    0.0000 C   0  0  0  0  0  0  0  0  0  0  0  0
   -3.5828    0.9194    0.0000 C   0  0  0  0  0  0  0  0  0  0  0  0
   -2.9544    2.2875    0.0000 O   0  0  0  0  0  0  0  0  0  0  0  0
   -3.7169   -0.3875    0.0000 C   0  0  0  0  0  0  0  0  0  0  0  0
   -4.0775   -1.8435    0.0000 C   0  0  0  0  0  0  0  0  0  0  0  0
   -5.5767   -1.7935    0.0000 C   0  0  0  0  0  0  0  0  0  0  0  0
   -3.8148   -3.3203    0.0000 C   0  0  0  0  0  0  0  0  0  0  0  0
   -2.9740   -4.5625    0.0000 N   0  0  0  0  0  0  0  0  0  0  0  0
   -4.0144   -5.6432    0.0000 C   0  0  0  0  0  0  0  0  0  0  0  0
   -1.7007   -5.3554    0.0000 C   0  0  0  0  0  0  0  0  0  0  0  0
   -2.2116   -6.7658    0.0000 C   0  0  0  0  0  0  0  0  0  0  0  0
   -0.2150   -5.5619    0.0000 C   0  0  0  0  0  0  0  0  0  0  0  0
   -0.1081   -7.0581    0.0000 O   0  0  0  0  0  0  0  0  0  0  0  0
    1.2262   -5.1462    0.0000 C   0  0  0  0  0  0  0  0  0  0  0  0
    2.5518   -5.8484    0.0000 C   0  0  0  0  0  0  0  0  0  0  0  0
    1.0718   -6.6382    0.0000 O   0  0  0  0  0  0  0  0  0  0  0  0
  1  2  1  0
  2  3  1  0
  3  4  1  0
  4  5  1  0
  5  6  2  0
  5  7  1  0
  7  8  1  0
  7  9  1  0
  9 10  1  0
 10 11  1  0
 11 12  1  0
 12 13  1  0
 13 14  1  0
 13 15  1  0
 15 16  1  0
 13 17  1  0
 17 18  1  0
 17 19  1  0
 19 20  1  0
 19 21  1  0
  9 22  1  0
 22 23  1  0
 22 24  1  0
 24 25  1  0
 25 26  1  0
 26 27  1  0
 27 28  1  0
 28 29  1  0
 28 30  1  0
 30 31  1  0
 31 32  1  0
 32 33  1  0
 32 34  1  0
 31 35  1  0
 35 36  1  0
 24 37  1  0
 37 38  1  0
 37 39  1  0
 37 40  1  0
 40 41  1  0
 41 42  1  0
 41 43  1  0
 43 44  1  0
 44 45  1  0
 44 46  1  0
 46 47  1  0
 46 48  1  0
 48 49  1  0
 48 50  1  0
 50 51  1  0
 50 52  1  0
 50  3  1  0
 21 11  1  0
 35 26  1  0
M  END
> <Identifier>
55185.0

> <DILI>
0

$$$$

     RDKit          2D

 49 55  0  0  0  0  0  0  0  0999 V2000
  -17.0155    0.2991    0.0000 C   0  0  0  0  0  0  0  0  0  0  0  0
  -15.6896   -0.4024    0.0000 C   0  0  0  0  0  0  0  0  0  0  0  0
  -14.4192    0.3951    0.0000 C   0  0  0  0  0  0  0  0  0  0  0  0
  -14.4747    1.8941    0.0000 C   0  0  0  0  0  0  0  0  0  0  0  0
  -13.0933   -0.3063    0.0000 N   0  0  0  0  0  0  0  0  0  0  0  0
  -12.8815   -1.7913    0.0000 N   0  0  0  0  0  0  0  0  0  0  0  0
  -11.4038   -2.0487    0.0000 C   0  0  0  0  0  0  0  0  0  0  0  0
  -10.7023   -0.7228    0.0000 N   0  0  0  0  0  0  0  0  0  0  0  0
   -9.2173   -0.5109    0.0000 C   0  0  0  0  0  0  0  0  0  0  0  0
   -8.2914   -1.6910    0.0000 C   0  0  0  0  0  0  0  0  0  0  0  0
   -6.8064   -1.4792    0.0000 C   0  0  0  0  0  0  0  0  0  0  0  0
   -6.2474   -0.0872    0.0000 C   0  0  0  0  0  0  0  0  0  0  0  0
   -4.7624    0.1246    0.0000 N   0  0  0  0  0  0  0  0  0  0  0  0
   -3.8365   -1.0555    0.0000 C   0  0  0  0  0  0  0  0  0  0  0  0
   -2.3515   -0.8436    0.0000 C   0  0  0  0  0  0  0  0  0  0  0  0
   -1.7925    0.5483    0.0000 N   0  0  0  0  0  0  0  0  0  0  0  0
   -0.3075    0.7601    0.0000 C   0  0  0  0  0  0  0  0  0  0  0  0
    0.6184   -0.4199    0.0000 C   0  0  0  0  0  0  0  0  0  0  0  0
    2.1034   -0.2081    0.0000 C   0  0  0  0  0  0  0  0  0  0  0  0
    2.6624    1.1838    0.0000 C   0  0  0  0  0  0  0  0  0  0  0  0
    4.1473    1.3957    0.0000 O   0  0  0  0  0  0  0  0  0  0  0  0
    5.0733    0.2156    0.0000 C   0  0  0  0  0  0  0  0  0  0  0  0
    6.5583    0.4274    0.0000 C   0  0  0  0  0  0  0  0  0  0  0  0
    7.2597    1.7533    0.0000 C   0  0  0  0  0  0  0  0  0  0  0  0
    8.7375    1.4959    0.0000 O   0  0  0  0  0  0  0  0  0  0  0  0
    8.9493    0.0110    0.0000 C   0  0  0  0  0  0  0  0  0  0  0  0
    9.4653   -1.3975    0.0000 C   0  0  0  0  0  0  0  0  0  0  0  0
    8.5035   -2.5486    0.0000 N   0  0  0  0  0  0  0  0  0  0  0  0
    8.8694   -4.0033    0.0000 C   0  0  0  0  0  0  0  0  0  0  0  0
    7.5990   -4.8008    0.0000 N   0  0  0  0  0  0  0  0  0  0  0  0
    6.4479   -3.8390    0.0000 C   0  0  0  0  0  0  0  0  0  0  0  0
    7.0069   -2.4471    0.0000 N   0  0  0  0  0  0  0  0  0  0  0  0
   10.4040    0.3769    0.0000 C   0  0  0  0  0  0  0  0  0  0  0  0
   11.4482   -0.7000    0.0000 C   0  0  0  0  0  0  0  0  0  0  0  0
   12.9029   -0.3341    0.0000 C   0  0  0  0  0  0  0  0  0  0  0  0
   13.3134    1.1087    0.0000 C   0  0  0  0  0  0  0  0  0  0  0  0
   14.7681    1.4746    0.0000 Cl  0  0  0  0  0  0  0  0  0  0  0  0
   12.2691    2.1855    0.0000 C   0  0  0  0  0  0  0  0  0  0  0  0
   10.8145    1.8196    0.0000 C   0  0  0  0  0  0  0  0  0  0  0  0
    9.7702    2.8965    0.0000 Cl  0  0  0  0  0  0  0  0  0  0  0  0
    7.6025   -0.6494    0.0000 O   0  0  0  0  0  0  0  0  0  0  0  0
    1.7364    2.3639    0.0000 C   0  0  0  0  0  0  0  0  0  0  0  0
    0.2515    2.1521    0.0000 C   0  0  0  0  0  0  0  0  0  0  0  0
   -2.7185    1.7284    0.0000 C   0  0  0  0  0  0  0  0  0  0  0  0
   -4.2034    1.5165    0.0000 C   0  0  0  0  0  0  0  0  0  0  0  0
   -7.1734    1.0928    0.0000 C   0  0  0  0  0  0  0  0  0  0  0  0
   -8.6583    0.8810    0.0000 C   0  0  0  0  0  0  0  0  0  0  0  0
  -11.7465    0.3541    0.0000 C   0  0  0  0  0  0  0  0  0  0  0  0
  -11.4891    1.8318    0.0000 O   0  0  0  0  0  0  0  0  0  0  0  0
  1  2  1  0
  2  3  1  0
  3  4  1  0
  3  5  1  0
  5  6  1  0
  6  7  2  0
  7  8  1  0
  8  9  1  0
  9 10  2  0
 10 11  1  0
 11 12  2  0
 12 13  1  0
 13 14  1  0
 14 15  1  0
 15 16  1  0
 16 17  1  0
 17 18  2  0
 18 19  1  0
 19 20  2  0
 20 21  1  0
 21 22  1  0
 22 23  1  0
 23 24  1  0
 24 25  1  0
 25 26  1  0
 26 27  1  0
 27 28  1  0
 28 29  1  0
 29 30  2  0
 30 31  1  0
 31 32  2  0
 26 33  1  0
 33 34  2  0
 34 35  1  0
 35 36  2  0
 36 37  1  0
 36 38  1  0
 38 39  2  0
 39 40  1  0
 26 41  1  0
 20 42  1  0
 42 43  2  0
 16 44  1  0
 44 45  1  0
 12 46  1  0
 46 47  2  0
  8 48  1  0
 48 49  2  0
 48  5  1  0
 47  9  1  0
 45 13  1  0
 43 17  1  0
 41 23  1  0
 32 28  1  0
 39 33  1  0
M  END
> <Identifier>
55283.0

> <DILI>
1

$$$$

     RDKit          2D

 29 30  0  0  0  0  0  0  0  0999 V2000
    2.6128   -1.7846    0.0000 C   0  0  0  0  0  0  0  0  0  0  0  0
    1.3115   -1.0387    0.0000 C   0  0  0  0  0  0  0  0  0  0  0  0
    0.5655   -2.3400    0.0000 O   0  0  0  0  0  0  0  0  0  0  0  0
    2.0574    0.2627    0.0000 C   0  0  0  0  0  0  0  0  0  0  0  0
    3.5574    0.2674    0.0000 S   0  0  0  0  0  0  0  0  0  0  0  0
    3.5621   -1.2326    0.0000 O   0  0  0  0  0  0  0  0  0  0  0  0
    3.5527    1.7674    0.0000 O   0  0  0  0  0  0  0  0  0  0  0  0
    5.0574    0.2721    0.0000 C   0  0  0  0  0  0  0  0  0  0  0  0
    5.8114   -1.0245    0.0000 C   0  0  0  0  0  0  0  0  0  0  0  0
    7.3114   -1.0198    0.0000 C   0  0  0  0  0  0  0  0  0  0  0  0
    8.0573    0.2816    0.0000 C   0  0  0  0  0  0  0  0  0  0  0  0
    9.5573    0.2863    0.0000 F   0  0  0  0  0  0  0  0  0  0  0  0
    7.3033    1.5782    0.0000 C   0  0  0  0  0  0  0  0  0  0  0  0
    5.8033    1.5735    0.0000 C   0  0  0  0  0  0  0  0  0  0  0  0
    0.0101   -0.2927    0.0000 C   0  0  0  0  0  0  0  0  0  0  0  0
    0.0054    1.2073    0.0000 O   0  0  0  0  0  0  0  0  0  0  0  0
   -1.2866   -1.0468    0.0000 N   0  0  0  0  0  0  0  0  0  0  0  0
   -2.5880   -0.3009    0.0000 C   0  0  0  0  0  0  0  0  0  0  0  0
   -2.5927    1.1991    0.0000 C   0  0  0  0  0  0  0  0  0  0  0  0
   -3.8941    1.9450    0.0000 C   0  0  0  0  0  0  0  0  0  0  0  0
   -5.1908    1.1909    0.0000 C   0  0  0  0  0  0  0  0  0  0  0  0
   -6.4922    1.9369    0.0000 C   0  0  0  0  0  0  0  0  0  0  0  0
   -7.7935    2.6828    0.0000 N   0  0  0  0  0  0  0  0  0  0  0  0
   -5.1861   -0.3091    0.0000 C   0  0  0  0  0  0  0  0  0  0  0  0
   -6.4827   -1.0631    0.0000 C   0  0  0  0  0  0  0  0  0  0  0  0
   -7.7794   -1.8172    0.0000 F   0  0  0  0  0  0  0  0  0  0  0  0
   -5.7287   -2.3598    0.0000 F   0  0  0  0  0  0  0  0  0  0  0  0
   -7.2368    0.2336    0.0000 F   0  0  0  0  0  0  0  0  0  0  0  0
   -3.8847   -1.0550    0.0000 C   0  0  0  0  0  0  0  0  0  0  0  0
  1  2  1  0
  2  3  1  0
  2  4  1  0
  4  5  1  0
  5  6  2  0
  5  7  2  0
  5  8  1  0
  8  9  2  0
  9 10  1  0
 10 11  2  0
 11 12  1  0
 11 13  1  0
 13 14  2  0
  2 15  1  0
 15 16  2  0
 15 17  1  0
 17 18  1  0
 18 19  2  0
 19 20  1  0
 20 21  2  0
 21 22  1  0
 22 23  3  0
 21 24  1  0
 24 25  1  0
 25 26  1  0
 25 27  1  0
 25 28  1  0
 24 29  2  0
 14  8  1  0
 29 18  1  0
M  END
> <Identifier>
56069.0

> <DILI>
1

$$$$

     RDKit          2D

 27 30  0  0  0  0  0  0  0  0999 V2000
   -7.2135   -0.8094    0.0000 C   0  0  0  0  0  0  0  0  0  0  0  0
   -6.3489    0.4164    0.0000 C   0  0  0  0  0  0  0  0  0  0  0  0
   -5.4843    1.6421    0.0000 C   0  0  0  0  0  0  0  0  0  0  0  0
   -7.5747    1.2810    0.0000 C   0  0  0  0  0  0  0  0  0  0  0  0
   -5.1232   -0.4482    0.0000 N   0  0  0  0  0  0  0  0  0  0  0  0
   -3.7615    0.1810    0.0000 C   0  0  0  0  0  0  0  0  0  0  0  0
   -3.6256    1.6748    0.0000 O   0  0  0  0  0  0  0  0  0  0  0  0
   -2.5358   -0.6836    0.0000 C   0  0  0  0  0  0  0  0  0  0  0  0
   -2.5148   -2.1835    0.0000 C   0  0  0  0  0  0  0  0  0  0  0  0
   -1.0819   -2.6270    0.0000 C   0  0  0  0  0  0  0  0  0  0  0  0
   -0.2172   -1.4012    0.0000 C   0  0  0  0  0  0  0  0  0  0  0  0
    1.2722   -1.2236    0.0000 C   0  0  0  0  0  0  0  0  0  0  0  0
    2.1708   -2.4246    0.0000 C   0  0  0  0  0  0  0  0  0  0  0  0
    3.6602   -2.2470    0.0000 C   0  0  0  0  0  0  0  0  0  0  0  0
    4.2511   -0.8683    0.0000 C   0  0  0  0  0  0  0  0  0  0  0  0
    5.7405   -0.6906    0.0000 N   0  0  0  0  0  0  0  0  0  0  0  0
    6.3314    0.6881    0.0000 C   0  0  0  0  0  0  0  0  0  0  0  0
    7.8208    0.8658    0.0000 O   0  0  0  0  0  0  0  0  0  0  0  0
    5.4328    1.8892    0.0000 C   0  0  0  0  0  0  0  0  0  0  0  0
    3.9434    1.7115    0.0000 C   0  0  0  0  0  0  0  0  0  0  0  0
    3.3525    0.3328    0.0000 C   0  0  0  0  0  0  0  0  0  0  0  0
    2.4539    1.5339    0.0000 C   0  0  0  0  0  0  0  0  0  0  0  0
    1.8631    0.1552    0.0000 C   0  0  0  0  0  0  0  0  0  0  0  0
    0.9645    1.3562    0.0000 C   0  0  0  0  0  0  0  0  0  0  0  0
   -0.5250    1.1786    0.0000 C   0  0  0  0  0  0  0  0  0  0  0  0
   -1.1158   -0.2002    0.0000 C   0  0  0  0  0  0  0  0  0  0  0  0
   -2.1350    0.9004    0.0000 C   0  0  0  0  0  0  0  0  0  0  0  0
  1  2  1  0
  2  3  1  0
  2  4  1  0
  2  5  1  0
  5  6  1  0
  6  7  2  0
  6  8  1  0
  8  9  1  0
  9 10  1  0
 10 11  1  0
 11 12  1  0
 12 13  1  0
 13 14  1  0
 14 15  1  0
 15 16  1  0
 16 17  1  0
 17 18  2  0
 17 19  1  0
 19 20  2  0
 20 21  1  0
 21 22  1  0
 21 23  1  0
 23 24  1  0
 24 25  1  0
 25 26  1  0
 26 27  1  0
 26  8  1  0
 26 11  1  0
 23 12  1  0
 21 15  1  0
M  END
> <Identifier>
57363.0

> <DILI>
0

$$$$

     RDKit          2D

 21 21  0  0  0  0  0  0  0  0999 V2000
   -9.2881    0.1308    0.0000 C   0  0  0  0  0  0  0  0  0  0  0  0
   -7.8737    0.6303    0.0000 O   0  0  0  0  0  0  0  0  0  0  0  0
   -6.7339   -0.3448    0.0000 C   0  0  0  0  0  0  0  0  0  0  0  0
   -7.0084   -1.8194    0.0000 O   0  0  0  0  0  0  0  0  0  0  0  0
   -5.3195    0.1548    0.0000 C   0  0  0  0  0  0  0  0  0  0  0  0
   -4.1797   -0.8203    0.0000 C   0  0  0  0  0  0  0  0  0  0  0  0
   -2.7653   -0.3207    0.0000 C   0  0  0  0  0  0  0  0  0  0  0  0
   -2.4908    1.1540    0.0000 C   0  0  0  0  0  0  0  0  0  0  0  0
   -1.0764    1.6535    0.0000 C   0  0  0  0  0  0  0  0  0  0  0  0
    0.0634    0.6784    0.0000 C   0  0  0  0  0  0  0  0  0  0  0  0
    1.4778    1.1780    0.0000 O   0  0  0  0  0  0  0  0  0  0  0  0
    2.6176    0.2029    0.0000 C   0  0  0  0  0  0  0  0  0  0  0  0
    4.0319    0.7025    0.0000 C   0  0  0  0  0  0  0  0  0  0  0  0
    4.3065    2.1771    0.0000 O   0  0  0  0  0  0  0  0  0  0  0  0
    5.1718   -0.2726    0.0000 C   0  0  0  0  0  0  0  0  0  0  0  0
    6.5861    0.2270    0.0000 N   0  0  0  0  0  0  0  0  0  0  0  0
    7.7259   -0.7481    0.0000 C   0  0  0  0  0  0  0  0  0  0  0  0
    9.1403   -0.2486    0.0000 C   0  0  0  0  0  0  0  0  0  0  0  0
    7.4514   -2.2228    0.0000 C   0  0  0  0  0  0  0  0  0  0  0  0
   -0.2112   -0.7962    0.0000 C   0  0  0  0  0  0  0  0  0  0  0  0
   -1.6255   -1.2958    0.0000 C   0  0  0  0  0  0  0  0  0  0  0  0
  1  2  1  0
  2  3  1  0
  3  4  2  0
  3  5  1  0
  5  6  1  0
  6  7  1  0
  7  8  2  0
  8  9  1  0
  9 10  2  0
 10 11  1  0
 11 12  1  0
 12 13  1  0
 13 14  1  0
 13 15  1  0
 15 16  1  0
 16 17  1  0
 17 18  1  0
 17 19  1  0
 10 20  1  0
 20 21  2  0
 21  7  1  0
M  END
> <Identifier>
59768.0

> <DILI>
0

$$$$

     RDKit          2D

 30 33  0  0  0  0  0  0  0  0999 V2000
   -7.1612    1.4350    0.0000 C   0  0  0  0  0  0  0  0  0  0  0  0
   -5.9512    0.5486    0.0000 C   0  0  0  0  0  0  0  0  0  0  0  0
   -4.5785    1.1533    0.0000 C   0  0  0  0  0  0  0  0  0  0  0  0
   -3.3684    0.2668    0.0000 N   0  0  0  0  0  0  0  0  0  0  0  0
   -1.9957    0.8716    0.0000 C   0  0  0  0  0  0  0  0  0  0  0  0
   -0.7857   -0.0149    0.0000 C   0  0  0  0  0  0  0  0  0  0  0  0
    0.5870    0.5898    0.0000 C   0  0  0  0  0  0  0  0  0  0  0  0
    0.7497    2.0810    0.0000 C   0  0  0  0  0  0  0  0  0  0  0  0
   -0.4604    2.9674    0.0000 C   0  0  0  0  0  0  0  0  0  0  0  0
   -1.8331    2.3627    0.0000 C   0  0  0  0  0  0  0  0  0  0  0  0
   -3.0431    3.2492    0.0000 F   0  0  0  0  0  0  0  0  0  0  0  0
    2.1224    2.6857    0.0000 C   0  0  0  0  0  0  0  0  0  0  0  0
    2.2851    4.1768    0.0000 O   0  0  0  0  0  0  0  0  0  0  0  0
    3.3325    1.7992    0.0000 C   0  0  0  0  0  0  0  0  0  0  0  0
    4.7052    2.4040    0.0000 C   0  0  0  0  0  0  0  0  0  0  0  0
    4.8678    3.8951    0.0000 O   0  0  0  0  0  0  0  0  0  0  0  0
    5.9152    1.5175    0.0000 O   0  0  0  0  0  0  0  0  0  0  0  0
    3.1698    0.3081    0.0000 C   0  0  0  0  0  0  0  0  0  0  0  0
    1.7971   -0.2966    0.0000 N   0  0  0  0  0  0  0  0  0  0  0  0
    1.6344   -1.7878    0.0000 C   0  0  0  0  0  0  0  0  0  0  0  0
    0.2617   -2.3925    0.0000 C   0  0  0  0  0  0  0  0  0  0  0  0
    0.0991   -3.8836    0.0000 C   0  0  0  0  0  0  0  0  0  0  0  0
    1.3091   -4.7701    0.0000 C   0  0  0  0  0  0  0  0  0  0  0  0
    1.1464   -6.2612    0.0000 F   0  0  0  0  0  0  0  0  0  0  0  0
    2.6818   -4.1654    0.0000 C   0  0  0  0  0  0  0  0  0  0  0  0
    2.8445   -2.6742    0.0000 C   0  0  0  0  0  0  0  0  0  0  0  0
    4.2172   -2.0695    0.0000 F   0  0  0  0  0  0  0  0  0  0  0  0
   -3.5311   -1.2243    0.0000 C   0  0  0  0  0  0  0  0  0  0  0  0
   -4.9038   -1.8290    0.0000 C   0  0  0  0  0  0  0  0  0  0  0  0
   -6.1138   -0.9426    0.0000 N   0  0  0  0  0  0  0  0  0  0  0  0
  1  2  1  0
  2  3  1  0
  3  4  1  0
  4  5  1  0
  5  6  2  0
  6  7  1  0
  7  8  2  0
  8  9  1  0
  9 10  2  0
 10 11  1  0
  8 12  1  0
 12 13  2  0
 12 14  1  0
 14 15  1  0
 15 16  2  0
 15 17  1  0
 14 18  2  0
 18 19  1  0
 19 20  1  0
 20 21  2  0
 21 22  1  0
 22 23  2  0
 23 24  1  0
 23 25  1  0
 25 26  2  0
 26 27  1  0
  4 28  1  0
 28 29  1  0
 29 30  1  0
 30  2  1  0
 10  5  1  0
 26 20  1  0
 19  7  1  0
M  END
> <Identifier>
60021.0

> <DILI>
1

$$$$

     RDKit          2D

 76 79  0  0  0  0  0  0  0  0999 V2000
   -5.3239    4.7765    0.0000 C   0  0  0  0  0  0  0  0  0  0  0  0
   -5.9850    3.4301    0.0000 O   0  0  0  0  0  0  0  0  0  0  0  0
   -7.4816    3.3294    0.0000 C   0  0  0  0  0  0  0  0  0  0  0  0
   -8.1428    1.9830    0.0000 C   0  0  0  0  0  0  0  0  0  0  0  0
   -9.6394    1.8824    0.0000 C   0  0  0  0  0  0  0  0  0  0  0  0
  -10.3006    0.5360    0.0000 C   0  0  0  0  0  0  0  0  0  0  0  0
   -9.4652   -0.7098    0.0000 C   0  0  0  0  0  0  0  0  0  0  0  0
  -10.1263   -2.0563    0.0000 C   0  0  0  0  0  0  0  0  0  0  0  0
   -9.2909   -3.3021    0.0000 C   0  0  0  0  0  0  0  0  0  0  0  0
   -9.9520   -4.6485    0.0000 C   0  0  0  0  0  0  0  0  0  0  0  0
  -11.4487   -4.7491    0.0000 C   0  0  0  0  0  0  0  0  0  0  0  0
  -12.1098   -6.0955    0.0000 O   0  0  0  0  0  0  0  0  0  0  0  0
  -13.6065   -6.1961    0.0000 C   0  0  0  0  0  0  0  0  0  0  0  0
  -12.2841   -3.5033    0.0000 C   0  0  0  0  0  0  0  0  0  0  0  0
  -13.7807   -3.6039    0.0000 O   0  0  0  0  0  0  0  0  0  0  0  0
  -14.6162   -2.3581    0.0000 C   0  0  0  0  0  0  0  0  0  0  0  0
  -11.6229   -2.1569    0.0000 C   0  0  0  0  0  0  0  0  0  0  0  0
  -12.4584   -0.9111    0.0000 O   0  0  0  0  0  0  0  0  0  0  0  0
  -13.9550   -1.0117    0.0000 C   0  0  0  0  0  0  0  0  0  0  0  0
   -7.7942   -3.2014    0.0000 C   0  0  0  0  0  0  0  0  0  0  0  0
   -7.1331   -1.8550    0.0000 C   0  0  0  0  0  0  0  0  0  0  0  0
   -7.9685   -0.6092    0.0000 N   0  0  0  0  0  4  0  0  0  0  0  0
   -8.3275    0.8472    0.0000 C   0  0  0  0  0  0  0  0  0  0  0  0
   -6.5966   -0.0028    0.0000 C   0  0  0  0  0  0  0  0  0  0  0  0
   -5.3854   -0.8877    0.0000 C   0  0  0  0  0  0  0  0  0  0  0  0
   -4.0135   -0.2813    0.0000 C   0  0  0  0  0  0  0  0  0  0  0  0
   -2.8023   -1.1662    0.0000 O   0  0  0  0  0  0  0  0  0  0  0  0
   -1.4304   -0.5598    0.0000 C   0  0  0  0  0  0  0  0  0  0  0  0
   -1.2696    0.9316    0.0000 O   0  0  0  0  0  0  0  0  0  0  0  0
   -0.2192   -1.4447    0.0000 C   0  0  0  0  0  0  0  0  0  0  0  0
    1.1527   -0.8383    0.0000 C   0  0  0  0  0  0  0  0  0  0  0  0
    2.3639   -1.7232    0.0000 C   0  0  0  0  0  0  0  0  0  0  0  0
    2.2031   -3.2146    0.0000 O   0  0  0  0  0  0  0  0  0  0  0  0
    3.7358   -1.1168    0.0000 O   0  0  0  0  0  0  0  0  0  0  0  0
    4.9470   -2.0017    0.0000 C   0  0  0  0  0  0  0  0  0  0  0  0
    6.3189   -1.3953    0.0000 C   0  0  0  0  0  0  0  0  0  0  0  0
    7.5301   -2.2802    0.0000 C   0  0  0  0  0  0  0  0  0  0  0  0
    8.9021   -1.6738    0.0000 N   0  0  0  0  0  4  0  0  0  0  0  0
    8.0666   -0.4280    0.0000 C   0  0  0  0  0  0  0  0  0  0  0  0
    9.2610   -3.1302    0.0000 C   0  0  0  0  0  0  0  0  0  0  0  0
   10.7018   -3.5475    0.0000 C   0  0  0  0  0  0  0  0  0  0  0  0
   11.7836   -2.5084    0.0000 C   0  0  0  0  0  0  0  0  0  0  0  0
   13.2244   -2.9257    0.0000 C   0  0  0  0  0  0  0  0  0  0  0  0
   14.3062   -1.8867    0.0000 C   0  0  0  0  0  0  0  0  0  0  0  0
   15.7470   -2.3040    0.0000 O   0  0  0  0  0  0  0  0  0  0  0  0
   16.1059   -3.7604    0.0000 C   0  0  0  0  0  0  0  0  0  0  0  0
   13.9472   -0.4302    0.0000 C   0  0  0  0  0  0  0  0  0  0  0  0
   15.0290    0.6089    0.0000 O   0  0  0  0  0  0  0  0  0  0  0  0
   14.6700    2.0653    0.0000 C   0  0  0  0  0  0  0  0  0  0  0  0
   12.5064   -0.0129    0.0000 C   0  0  0  0  0  0  0  0  0  0  0  0
   12.1475    1.4435    0.0000 O   0  0  0  0  0  0  0  0  0  0  0  0
   13.2293    2.4826    0.0000 C   0  0  0  0  0  0  0  0  0  0  0  0
   11.4246   -1.0520    0.0000 C   0  0  0  0  0  0  0  0  0  0  0  0
    9.9839   -0.6347    0.0000 C   0  0  0  0  0  0  0  0  0  0  0  0
    9.6249    0.8217    0.0000 C   0  0  0  0  0  0  0  0  0  0  0  0
    8.1841    1.2390    0.0000 C   0  0  0  0  0  0  0  0  0  0  0  0
    7.8251    2.6955    0.0000 C   0  0  0  0  0  0  0  0  0  0  0  0
    6.3843    3.1128    0.0000 C   0  0  0  0  0  0  0  0  0  0  0  0
    6.0254    4.5692    0.0000 O   0  0  0  0  0  0  0  0  0  0  0  0
    7.1072    5.6083    0.0000 C   0  0  0  0  0  0  0  0  0  0  0  0
    5.3025    2.0737    0.0000 C   0  0  0  0  0  0  0  0  0  0  0  0
    3.8618    2.4910    0.0000 O   0  0  0  0  0  0  0  0  0  0  0  0
    3.5028    3.9474    0.0000 C   0  0  0  0  0  0  0  0  0  0  0  0
    5.6615    0.6173    0.0000 C   0  0  0  0  0  0  0  0  0  0  0  0
    4.5797   -0.4218    0.0000 O   0  0  0  0  0  0  0  0  0  0  0  0
    3.1389   -0.0045    0.0000 C   0  0  0  0  0  0  0  0  0  0  0  0
    7.1023    0.2000    0.0000 C   0  0  0  0  0  0  0  0  0  0  0  0
  -10.4749    3.1282    0.0000 C   0  0  0  0  0  0  0  0  0  0  0  0
   -9.8137    4.4746    0.0000 C   0  0  0  0  0  0  0  0  0  0  0  0
  -10.6492    5.7204    0.0000 O   0  0  0  0  0  0  0  0  0  0  0  0
   -9.9880    7.0668    0.0000 C   0  0  0  0  0  0  0  0  0  0  0  0
   -8.3171    4.5752    0.0000 C   0  0  0  0  0  0  0  0  0  0  0  0
   -7.6559    5.9217    0.0000 O   0  0  0  0  0  0  0  0  0  0  0  0
   -6.1593    6.0223    0.0000 C   0  0  0  0  0  0  0  0  0  0  0  0
    0.0000    8.0668    0.0000 Cl  0  0  0  0  0 15  0  0  0  0  0  0
    0.0000    9.0668    0.0000 Cl  0  0  0  0  0 15  0  0  0  0  0  0
  1  2  1  0
  2  3  1  0
  3  4  2  0
  4  5  1  0
  5  6  1  0
  6  7  1  0
  7  8  1  0
  8  9  1  0
  9 10  2  0
 10 11  1  0
 11 12  1  0
 12 13  1  0
 11 14  2  0
 14 15  1  0
 15 16  1  0
 14 17  1  0
 17 18  1  0
 18 19  1  0
  9 20  1  0
 20 21  1  0
 21 22  1  0
 22 23  1  0
 22 24  1  0
 24 25  1  0
 25 26  1  0
 26 27  1  0
 27 28  1  0
 28 29  2  0
 28 30  1  0
 30 31  1  0
 31 32  1  0
 32 33  2  0
 32 34  1  0
 34 35  1  0
 35 36  1  0
 36 37  1  0
 37 38  1  0
 38 39  1  0
 38 40  1  0
 40 41  1  0
 41 42  1  0
 42 43  2  0
 43 44  1  0
 44 45  1  0
 45 46  1  0
 44 47  2  0
 47 48  1  0
 48 49  1  0
 47 50  1  0
 50 51  1  0
 51 52  1  0
 50 53  2  0
 53 54  1  0
 54 55  1  0
 55 56  1  0
 56 57  2  0
 57 58  1  0
 58 59  1  0
 59 60  1  0
 58 61  2  0
 61 62  1  0
 62 63  1  0
 61 64  1  0
 64 65  1  0
 65 66  1  0
 64 67  2  0
  5 68  2  0
 68 69  1  0
 69 70  1  0
 70 71  1  0
 69 72  2  0
 72 73  1  0
 73 74  1  0
 72  3  1  0
 22  7  1  0
 54 38  1  0
 67 56  1  0
 17  8  2  0
 53 42  1  0
M  CHG  4  22   1  38   1  75  -1  76  -1
M  END
> <Identifier>
60168.0

> <DILI>
0

$$$$

     RDKit          2D

 18 19  0  0  0  0  0  0  0  0999 V2000
   -5.8545   -1.3123    0.0000 N   0  0  0  0  0  0  0  0  0  0  0  0
   -4.7876   -0.2579    0.0000 C   0  0  0  0  0  0  0  0  0  0  0  0
   -5.1674    1.1933    0.0000 N   0  0  0  0  0  0  0  0  0  0  0  0
   -4.1005    2.2477    0.0000 C   0  0  0  0  0  0  0  0  0  0  0  0
   -2.6539    1.8510    0.0000 N   0  0  0  0  0  0  0  0  0  0  0  0
   -2.2742    0.3998    0.0000 C   0  0  0  0  0  0  0  0  0  0  0  0
   -3.3411   -0.6546    0.0000 C   0  0  0  0  0  0  0  0  0  0  0  0
   -2.6679   -1.9951    0.0000 N   0  0  0  0  0  0  0  0  0  0  0  0
   -1.1850   -1.7691    0.0000 C   0  0  0  0  0  0  0  0  0  0  0  0
   -0.9417   -0.2890    0.0000 N   0  0  0  0  0  0  0  0  0  0  0  0
    0.3988    0.3842    0.0000 C   0  0  0  0  0  0  0  0  0  0  0  0
    1.6520   -0.4401    0.0000 C   0  0  0  0  0  0  0  0  0  0  0  0
    2.9925    0.2330    0.0000 O   0  0  0  0  0  0  0  0  0  0  0  0
    4.2456   -0.5913    0.0000 C   0  0  0  0  0  0  0  0  0  0  0  0
    5.5861    0.0818    0.0000 P   0  0  0  0  0  0  0  0  0  0  0  0
    6.9266    0.7550    0.0000 O   0  0  0  0  0  0  0  0  0  0  0  0
    6.2593   -1.2587    0.0000 O   0  0  0  0  0  0  0  0  0  0  0  0
    4.9130    1.4223    0.0000 O   0  0  0  0  0  0  0  0  0  0  0  0
  1  2  1  0
  2  3  2  0
  3  4  1  0
  4  5  2  0
  5  6  1  0
  6  7  2  0
  7  8  1  0
  8  9  2  0
  9 10  1  0
 10 11  1  0
 11 12  1  0
 12 13  1  0
 13 14  1  0
 14 15  1  0
 15 16  2  0
 15 17  1  0
 15 18  1  0
  7  2  1  0
 10  6  1  0
M  END
> <Identifier>
60172.0

> <DILI>
1

$$$$

     RDKit          2D

 22 25  0  0  0  0  0  0  0  0999 V2000
    2.4290    3.3714    0.0000 C   0  0  0  0  0  0  0  0  0  0  0  0
    1.6509    2.0890    0.0000 C   0  0  0  0  0  0  0  0  0  0  0  0
    0.1512    2.1217    0.0000 C   0  0  0  0  0  0  0  0  0  0  0  0
   -0.6269    0.8394    0.0000 C   0  0  0  0  0  0  0  0  0  0  0  0
    0.0946   -0.4757    0.0000 C   0  0  0  0  0  0  0  0  0  0  0  0
   -0.6836   -1.7581    0.0000 C   0  0  0  0  0  0  0  0  0  0  0  0
   -2.1832   -1.7254    0.0000 C   0  0  0  0  0  0  0  0  0  0  0  0
   -2.9047   -0.4103    0.0000 C   0  0  0  0  0  0  0  0  0  0  0  0
   -3.8126   -1.6043    0.0000 C   0  0  0  0  0  0  0  0  0  0  0  0
   -4.3648   -0.0665    0.0000 C   0  0  0  0  0  0  0  0  0  0  0  0
   -5.5011   -1.0456    0.0000 O   0  0  0  0  0  0  0  0  0  0  0  0
   -4.4890    1.4284    0.0000 C   0  0  0  0  0  0  0  0  0  0  0  0
   -3.1057    2.0084    0.0000 C   0  0  0  0  0  0  0  0  0  0  0  0
   -2.1266    0.8721    0.0000 C   0  0  0  0  0  0  0  0  0  0  0  0
    1.5942   -0.5084    0.0000 C   0  0  0  0  0  0  0  0  0  0  0  0
    0.8161   -1.7908    0.0000 C   0  0  0  0  0  0  0  0  0  0  0  0
    2.3157   -1.8235    0.0000 C   0  0  0  0  0  0  0  0  0  0  0  0
    3.8154   -1.8563    0.0000 C   0  0  0  0  0  0  0  0  0  0  0  0
    4.5935   -0.5739    0.0000 C   0  0  0  0  0  0  0  0  0  0  0  0
    6.0932   -0.6066    0.0000 O   0  0  0  0  0  0  0  0  0  0  0  0
    3.8720    0.7412    0.0000 C   0  0  0  0  0  0  0  0  0  0  0  0
    2.3724    0.7739    0.0000 C   0  0  0  0  0  0  0  0  0  0  0  0
  1  2  2  0
  2  3  1  0
  3  4  1  0
  4  5  1  0
  5  6  1  0
  6  7  1  0
  7  8  1  0
  8  9  1  0
  8 10  1  0
 10 11  2  0
 10 12  1  0
 12 13  1  0
 13 14  1  0
  5 15  1  0
 15 16  1  0
 15 17  1  0
 17 18  2  0
 18 19  1  0
 19 20  2  0
 19 21  1  0
 21 22  2  0
 22  2  1  0
 14  4  1  0
 22 15  1  0
 14  8  1  0
M  END
> <Identifier>
60198.0

> <DILI>
1

$$$$

     RDKit          2D

 16 17  0  0  0  0  0  0  0  0999 V2000
   -2.1399    2.0778    0.0000 C   0  0  0  0  0  0  0  0  0  0  0  0
   -1.6095    0.6747    0.0000 C   0  0  0  0  0  0  0  0  0  0  0  0
   -0.1292    0.4325    0.0000 C   0  0  0  0  0  0  0  0  0  0  0  0
    0.5450   -0.9075    0.0000 C   0  0  0  0  0  0  0  0  0  0  0  0
    2.0277   -0.6804    0.0000 C   0  0  0  0  0  0  0  0  0  0  0  0
    3.1886   -1.6303    0.0000 C   0  0  0  0  0  0  0  0  0  0  0  0
    4.5917   -1.0999    0.0000 C   0  0  0  0  0  0  0  0  0  0  0  0
    4.8339    0.3804    0.0000 C   0  0  0  0  0  0  0  0  0  0  0  0
    3.6730    1.3303    0.0000 C   0  0  0  0  0  0  0  0  0  0  0  0
    2.2699    0.7999    0.0000 C   0  0  0  0  0  0  0  0  0  0  0  0
    0.9369    1.4877    0.0000 S   0  0  0  0  0  0  0  0  0  0  0  0
   -2.5594   -0.4862    0.0000 N   0  0  0  0  0  0  0  0  0  0  0  0
   -2.0290   -1.8893    0.0000 O   0  0  0  0  0  0  0  0  0  0  0  0
   -4.0397   -0.2440    0.0000 C   0  0  0  0  0  0  0  0  0  0  0  0
   -4.9896   -1.4049    0.0000 N   0  0  0  0  0  0  0  0  0  0  0  0
   -4.5701    1.1591    0.0000 O   0  0  0  0  0  0  0  0  0  0  0  0
  1  2  1  0
  2  3  1  0
  3  4  2  0
  4  5  1  0
  5  6  2  0
  6  7  1  0
  7  8  2  0
  8  9  1  0
  9 10  2  0
 10 11  1  0
  2 12  1  0
 12 13  1  0
 12 14  1  0
 14 15  1  0
 14 16  2  0
 11  3  1  0
 10  5  1  0
M  END
> <Identifier>
60490.0

> <DILI>
1

$$$$

     RDKit          2D

 36 39  0  0  0  0  0  0  0  0999 V2000
   -1.4413    4.8100    0.0000 C   0  0  0  0  0  0  0  0  0  0  0  0
   -0.9569    3.3903    0.0000 O   0  0  0  0  0  0  0  0  0  0  0  0
    0.5148    3.1001    0.0000 C   0  0  0  0  0  0  0  0  0  0  0  0
    0.9993    1.6805    0.0000 C   0  0  0  0  0  0  0  0  0  0  0  0
    0.0121    0.5511    0.0000 O   0  0  0  0  0  0  0  0  0  0  0  0
    2.4709    1.3903    0.0000 O   0  0  0  0  0  0  0  0  0  0  0  0
    2.9554   -0.0293    0.0000 C   0  0  0  0  0  0  0  0  0  0  0  0
    1.4732   -0.2599    0.0000 C   0  0  0  0  0  0  0  0  0  0  0  0
    0.9319   -1.6588    0.0000 C   0  0  0  0  0  0  0  0  0  0  0  0
   -0.5503   -1.8894    0.0000 N   0  0  0  0  0  0  0  0  0  0  0  0
   -1.0917   -3.2883    0.0000 C   0  0  0  0  0  0  0  0  0  0  0  0
   -1.4911   -0.7211    0.0000 C   0  0  0  0  0  0  0  0  0  0  0  0
   -2.9733   -0.9518    0.0000 C   0  0  0  0  0  0  0  0  0  0  0  0
   -3.9141    0.2165    0.0000 C   0  0  0  0  0  0  0  0  0  0  0  0
   -5.3962   -0.0141    0.0000 C   0  0  0  0  0  0  0  0  0  0  0  0
   -6.0808   -1.3487    0.0000 N   0  0  0  0  0  0  0  0  0  0  0  0
   -7.5617   -1.1100    0.0000 C   0  0  0  0  0  0  0  0  0  0  0  0
   -8.7300   -2.0508    0.0000 C   0  0  0  0  0  0  0  0  0  0  0  0
  -10.1289   -1.5095    0.0000 C   0  0  0  0  0  0  0  0  0  0  0  0
  -10.3595   -0.0273    0.0000 C   0  0  0  0  0  0  0  0  0  0  0  0
   -9.1912    0.9135    0.0000 C   0  0  0  0  0  0  0  0  0  0  0  0
   -7.7923    0.3721    0.0000 C   0  0  0  0  0  0  0  0  0  0  0  0
   -6.4540    1.0495    0.0000 N   0  0  0  0  0  0  0  0  0  0  0  0
    2.9251   -1.5290    0.0000 C   0  0  0  0  0  0  0  0  0  0  0  0
    4.2088   -2.3051    0.0000 C   0  0  0  0  0  0  0  0  0  0  0  0
    5.5227   -1.5814    0.0000 C   0  0  0  0  0  0  0  0  0  0  0  0
    6.8063   -2.3575    0.0000 C   0  0  0  0  0  0  0  0  0  0  0  0
    8.1202   -1.6339    0.0000 C   0  0  0  0  0  0  0  0  0  0  0  0
    9.4039   -2.4099    0.0000 F   0  0  0  0  0  0  0  0  0  0  0  0
    8.1505   -0.1342    0.0000 C   0  0  0  0  0  0  0  0  0  0  0  0
    6.8669    0.6419    0.0000 C   0  0  0  0  0  0  0  0  0  0  0  0
    5.5530   -0.0817    0.0000 C   0  0  0  0  0  0  0  0  0  0  0  0
    4.2693    0.6943    0.0000 C   0  0  0  0  0  0  0  0  0  0  0  0
    4.2996    2.1940    0.0000 C   0  0  0  0  0  0  0  0  0  0  0  0
    3.0159    2.9701    0.0000 C   0  0  0  0  0  0  0  0  0  0  0  0
    5.6135    2.9176    0.0000 C   0  0  0  0  0  0  0  0  0  0  0  0
  1  2  1  0
  2  3  1  0
  3  4  1  0
  4  5  2  0
  4  6  1  0
  6  7  1  0
  7  8  1  0
  8  9  1  0
  9 10  1  0
 10 11  1  0
 10 12  1  0
 12 13  1  0
 13 14  1  0
 14 15  1  0
 15 16  2  0
 16 17  1  0
 17 18  2  0
 18 19  1  0
 19 20  2  0
 20 21  1  0
 21 22  2  0
 22 23  1  0
  7 24  1  0
 24 25  1  0
 25 26  1  0
 26 27  2  0
 27 28  1  0
 28 29  1  0
 28 30  2  0
 30 31  1  0
 31 32  2  0
 32 33  1  0
 33 34  1  0
 34 35  1  0
 34 36  1  0
 33  7  1  0
 23 15  1  0
 32 26  1  0
 22 17  1  0
M  END
> <Identifier>
60663.0

> <DILI>
0

$$$$

     RDKit          2D

 31 35  0  0  0  0  0  0  0  0999 V2000
   -4.3227   -3.4252    0.0000 C   0  0  0  0  0  0  0  0  0  0  0  0
   -3.9545   -1.9711    0.0000 C   0  0  0  0  0  0  0  0  0  0  0  0
   -5.0297   -0.9252    0.0000 C   0  0  0  0  0  0  0  0  0  0  0  0
   -5.8730   -2.1657    0.0000 O   0  0  0  0  0  0  0  0  0  0  0  0
   -6.3978   -0.3101    0.0000 C   0  0  0  0  0  0  0  0  0  0  0  0
   -7.6146   -1.1874    0.0000 O   0  0  0  0  0  0  0  0  0  0  0  0
   -6.5492    1.1823    0.0000 O   0  0  0  0  0  0  0  0  0  0  0  0
   -5.3325    2.0595    0.0000 C   0  0  0  0  0  0  0  0  0  0  0  0
   -3.9644    1.4444    0.0000 C   0  0  0  0  0  0  0  0  0  0  0  0
   -3.8130   -0.0479    0.0000 C   0  0  0  0  0  0  0  0  0  0  0  0
   -2.4449   -0.6630    0.0000 C   0  0  0  0  0  0  0  0  0  0  0  0
   -1.2282    0.2143    0.0000 C   0  0  0  0  0  0  0  0  0  0  0  0
   -1.3796    1.7066    0.0000 N   0  0  0  0  0  0  0  0  0  0  0  0
   -2.7477    2.3217    0.0000 C   0  0  0  0  0  0  0  0  0  0  0  0
   -2.8991    3.8141    0.0000 O   0  0  0  0  0  0  0  0  0  0  0  0
   -0.0071    2.3118    0.0000 C   0  0  0  0  0  0  0  0  0  0  0  0
    0.9926    1.1934    0.0000 C   0  0  0  0  0  0  0  0  0  0  0  0
    2.4926    1.1880    0.0000 C   0  0  0  0  0  0  0  0  0  0  0  0
    3.2378   -0.1138    0.0000 C   0  0  0  0  0  0  0  0  0  0  0  0
    4.7378   -0.1192    0.0000 C   0  0  0  0  0  0  0  0  0  0  0  0
    5.4925    1.1771    0.0000 C   0  0  0  0  0  0  0  0  0  0  0  0
    6.9925    1.1716    0.0000 N   0  0  0  0  0  0  0  0  0  0  0  0
    7.7472    2.4679    0.0000 C   0  0  0  0  0  0  0  0  0  0  0  0
    7.7378   -0.1301    0.0000 C   0  0  0  0  0  0  0  0  0  0  0  0
    5.4831   -1.4210    0.0000 C   0  0  0  0  0  0  0  0  0  0  0  0
    6.9831   -1.4264    0.0000 O   0  0  0  0  0  0  0  0  0  0  0  0
    4.7284   -2.7173    0.0000 C   0  0  0  0  0  0  0  0  0  0  0  0
    3.2284   -2.7118    0.0000 C   0  0  0  0  0  0  0  0  0  0  0  0
    2.4831   -1.4101    0.0000 C   0  0  0  0  0  0  0  0  0  0  0  0
    0.9831   -1.4046    0.0000 N   0  0  0  0  0  0  0  0  0  0  0  0
    0.2379   -0.1029    0.0000 C   0  0  0  0  0  0  0  0  0  0  0  0
  1  2  1  0
  2  3  1  0
  3  4  1  0
  3  5  1  0
  5  6  2  0
  5  7  1  0
  7  8  1  0
  8  9  1  0
  9 10  2  0
 10 11  1  0
 11 12  2  0
 12 13  1  0
 13 14  1  0
 14 15  2  0
 13 16  1  0
 16 17  1  0
 17 18  2  0
 18 19  1  0
 19 20  2  0
 20 21  1  0
 21 22  1  0
 22 23  1  0
 22 24  1  0
 20 25  1  0
 25 26  1  0
 25 27  2  0
 27 28  1  0
 28 29  2  0
 29 30  1  0
 30 31  2  0
 10  3  1  0
 31 12  1  0
 14  9  1  0
 31 17  1  0
 29 19  1  0
M  END
> <Identifier>
60700.0

> <DILI>
0

$$$$

     RDKit          2D

 29 28  0  0  0  0  0  0  0  0999 V2000
    6.6478   -1.2990    0.0000 C   0  0  0  0  0  0  0  0  0  0  0  0
    5.1478   -1.2990    0.0000 C   0  0  0  0  0  0  0  0  0  0  0  0
    4.3978   -2.5981    0.0000 O   0  0  0  0  0  0  0  0  0  0  0  0
    4.3978   -0.0000    0.0000 C   0  0  0  0  0  0  0  0  0  0  0  0
    2.8978   -0.0000    0.0000 N   0  0  0  0  0  0  0  0  0  0  0  0
    2.5095   -1.4489    0.0000 C   0  0  0  0  0  0  0  0  0  0  0  0
    1.4489   -2.5095    0.0000 C   0  0  0  0  0  0  0  0  0  0  0  0
   -0.0000   -2.8978    0.0000 N   0  0  0  0  0  0  0  0  0  0  0  0
   -0.0000   -4.3978    0.0000 C   0  0  0  0  0  0  0  0  0  0  0  0
   -1.2990   -5.1478    0.0000 C   0  0  0  0  0  0  0  0  0  0  0  0
   -2.5981   -4.3978    0.0000 O   0  0  0  0  0  0  0  0  0  0  0  0
   -1.2990   -6.6478    0.0000 O   0  0  0  0  0  1  0  0  0  0  0  0
   -1.4489   -2.5095    0.0000 C   0  0  0  0  0  0  0  0  0  0  0  0
   -2.5095   -1.4489    0.0000 C   0  0  0  0  0  0  0  0  0  0  0  0
   -2.8978    0.0000    0.0000 N   0  0  0  0  0  0  0  0  0  0  0  0
   -4.3978    0.0000    0.0000 C   0  0  0  0  0  0  0  0  0  0  0  0
   -5.1478    1.2990    0.0000 C   0  0  0  0  0  0  0  0  0  0  0  0
   -4.3978    2.5981    0.0000 O   0  0  0  0  0  0  0  0  0  0  0  0
   -6.6478    1.2990    0.0000 O   0  0  0  0  0  1  0  0  0  0  0  0
   -2.5095    1.4489    0.0000 C   0  0  0  0  0  0  0  0  0  0  0  0
   -1.4489    2.5095    0.0000 C   0  0  0  0  0  0  0  0  0  0  0  0
    0.0000    2.8978    0.0000 N   0  0  0  0  0  0  0  0  0  0  0  0
    0.0000    4.3978    0.0000 C   0  0  0  0  0  0  0  0  0  0  0  0
    1.2990    5.1478    0.0000 C   0  0  0  0  0  0  0  0  0  0  0  0
    2.5981    4.3978    0.0000 O   0  0  0  0  0  0  0  0  0  0  0  0
    1.2990    6.6478    0.0000 O   0  0  0  0  0  1  0  0  0  0  0  0
    1.4489    2.5095    0.0000 C   0  0  0  0  0  0  0  0  0  0  0  0
    2.5095    1.4489    0.0000 C   0  0  0  0  0  0  0  0  0  0  0  0
    0.0000    7.6478    0.0000 Gd  0  0  0  0  0 15  0  0  0  0  0  0
  1  2  1  0
  2  3  1  0
  2  4  1  0
  4  5  1  0
  5  6  1  0
  6  7  1  0
  7  8  1  0
  8  9  1  0
  9 10  1  0
 10 11  2  0
 10 12  1  0
  8 13  1  0
 13 14  1  0
 14 15  1  0
 15 16  1  0
 16 17  1  0
 17 18  2  0
 17 19  1  0
 15 20  1  0
 20 21  1  0
 21 22  1  0
 22 23  1  0
 23 24  1  0
 24 25  2  0
 24 26  1  0
 22 27  1  0
 27 28  1  0
 28  5  1  0
M  CHG  4  12  -1  19  -1  26  -1  29   3
M  END
> <Identifier>
60714.0

> <DILI>
0

$$$$

     RDKit          2D

 20 21  0  0  0  0  0  0  0  0999 V2000
    0.1979   -0.9547    0.0000 N   0  0  0  0  0  0  0  0  0  0  0  0
   -0.7563    0.2026    0.0000 C   0  0  0  0  0  0  0  0  0  0  0  0
   -2.2358   -0.0451    0.0000 C   0  0  0  0  0  0  0  0  0  0  0  0
   -2.7609   -1.4501    0.0000 C   0  0  0  0  0  0  0  0  0  0  0  0
   -4.2403   -1.6979    0.0000 C   0  0  0  0  0  0  0  0  0  0  0  0
   -5.1946   -0.5405    0.0000 O   0  0  0  0  0  0  0  0  0  0  0  0
   -4.7655   -3.1029    0.0000 O   0  0  0  0  0  0  0  0  0  0  0  0
   -3.1900    1.1123    0.0000 C   0  0  0  0  0  0  0  0  0  0  0  0
   -2.6648    2.5173    0.0000 C   0  0  0  0  0  0  0  0  0  0  0  0
   -1.1854    2.7650    0.0000 C   0  0  0  0  0  0  0  0  0  0  0  0
   -0.2312    1.6077    0.0000 C   0  0  0  0  0  0  0  0  0  0  0  0
    1.2482    1.8554    0.0000 C   0  0  0  0  0  0  0  0  0  0  0  0
    1.7734    3.2605    0.0000 O   0  0  0  0  0  0  0  0  0  0  0  0
    2.2025    0.6981    0.0000 C   0  0  0  0  0  0  0  0  0  0  0  0
    1.6773   -0.7070    0.0000 C   0  0  0  0  0  0  0  0  0  0  0  0
    2.6315   -1.8643    0.0000 C   0  0  0  0  0  0  0  0  0  0  0  0
    4.1109   -1.6166    0.0000 C   0  0  0  0  0  0  0  0  0  0  0  0
    5.0652   -2.7740    0.0000 Br  0  0  0  0  0  0  0  0  0  0  0  0
    4.6361   -0.2115    0.0000 C   0  0  0  0  0  0  0  0  0  0  0  0
    3.6819    0.9458    0.0000 C   0  0  0  0  0  0  0  0  0  0  0  0
  1  2  1  0
  2  3  2  0
  3  4  1  0
  4  5  1  0
  5  6  2  0
  5  7  1  0
  3  8  1  0
  8  9  2  0
  9 10  1  0
 10 11  2  0
 11 12  1  0
 12 13  2  0
 12 14  1  0
 14 15  2  0
 15 16  1  0
 16 17  2  0
 17 18  1  0
 17 19  1  0
 19 20  2  0
 11  2  1  0
 20 14  1  0
M  END
> <Identifier>
60726.0

> <DILI>
1

$$$$

     RDKit          2D

 26 26  0  0  0  0  0  0  0  0999 V2000
  -10.4952   -3.5817    0.0000 C   0  0  0  0  0  0  0  0  0  0  0  0
   -9.8430   -2.2309    0.0000 C   0  0  0  0  0  0  0  0  0  0  0  0
   -8.3471   -2.1203    0.0000 C   0  0  0  0  0  0  0  0  0  0  0  0
   -7.6950   -0.7695    0.0000 C   0  0  0  0  0  0  0  0  0  0  0  0
   -6.1991   -0.6588    0.0000 C   0  0  0  0  0  0  0  0  0  0  0  0
   -5.5469    0.6920    0.0000 C   0  0  0  0  0  0  0  0  0  0  0  0
   -4.0510    0.8026    0.0000 C   0  0  0  0  0  0  0  0  0  0  0  0
   -3.3988    2.1534    0.0000 N   0  0  0  0  0  0  0  0  0  0  0  0
   -4.2426    3.3936    0.0000 C   0  0  0  0  0  0  0  0  0  0  0  0
   -5.7385    3.2830    0.0000 C   0  0  0  0  0  0  0  0  0  0  0  0
   -1.9029    2.2640    0.0000 C   0  0  0  0  0  0  0  0  0  0  0  0
   -1.0592    1.0239    0.0000 C   0  0  0  0  0  0  0  0  0  0  0  0
    0.4367    1.1345    0.0000 C   0  0  0  0  0  0  0  0  0  0  0  0
    1.2805   -0.1057    0.0000 C   0  0  0  0  0  0  0  0  0  0  0  0
    0.6284   -1.4565    0.0000 O   0  0  0  0  0  0  0  0  0  0  0  0
    2.7764    0.0049    0.0000 C   0  0  0  0  0  0  0  0  0  0  0  0
    3.4286    1.3557    0.0000 C   0  0  0  0  0  0  0  0  0  0  0  0
    4.9245    1.4664    0.0000 C   0  0  0  0  0  0  0  0  0  0  0  0
    5.7683    0.2262    0.0000 C   0  0  0  0  0  0  0  0  0  0  0  0
    7.2642    0.3368    0.0000 N   0  0  0  0  0  0  0  0  0  0  0  0
    8.1079   -0.9034    0.0000 S   0  0  0  0  0  0  0  0  0  0  0  0
    8.9517   -2.1436    0.0000 C   0  0  0  0  0  0  0  0  0  0  0  0
    6.8678   -1.7471    0.0000 O   0  0  0  0  0  0  0  0  0  0  0  0
    9.3481   -0.0596    0.0000 O   0  0  0  0  0  0  0  0  0  0  0  0
    5.1161   -1.1246    0.0000 C   0  0  0  0  0  0  0  0  0  0  0  0
    3.6202   -1.2353    0.0000 C   0  0  0  0  0  0  0  0  0  0  0  0
  1  2  1  0
  2  3  1  0
  3  4  1  0
  4  5  1  0
  5  6  1  0
  6  7  1  0
  7  8  1  0
  8  9  1  0
  9 10  1  0
  8 11  1  0
 11 12  1  0
 12 13  1  0
 13 14  1  0
 14 15  1  0
 14 16  1  0
 16 17  2  0
 17 18  1  0
 18 19  2  0
 19 20  1  0
 20 21  1  0
 21 22  1  0
 21 23  2  0
 21 24  2  0
 19 25  1  0
 25 26  2  0
 26 16  1  0
M  END
> <Identifier>
60753.0

> <DILI>
0

$$$$

     RDKit          2D

 24 25  0  0  0  0  0  0  0  0999 V2000
   -3.2476   -4.3750    0.0000 C   0  0  0  0  0  0  0  0  0  0  0  0
   -3.2476   -2.8750    0.0000 C   0  0  0  0  0  0  0  0  0  0  0  0
   -4.5466   -2.1250    0.0000 C   0  0  0  0  0  0  0  0  0  0  0  0
   -4.5466   -0.6250    0.0000 C   0  0  0  0  0  0  0  0  0  0  0  0
   -3.2476    0.1250    0.0000 C   0  0  0  0  0  0  0  0  0  0  0  0
   -3.2476    1.6250    0.0000 O   0  0  0  0  0  0  0  0  0  0  0  0
   -1.9486   -0.6250    0.0000 C   0  0  0  0  0  0  0  0  0  0  0  0
   -0.6495    0.1250    0.0000 C   0  0  0  0  0  0  0  0  0  0  0  0
    0.6495   -0.6250    0.0000 C   0  0  0  0  0  0  0  0  0  0  0  0
    1.9486    0.1250    0.0000 C   0  0  0  0  0  0  0  0  0  0  0  0
    3.2476   -0.6250    0.0000 N   0  0  0  0  0  0  0  0  0  0  0  0
    4.5466    0.1250    0.0000 C   0  0  0  0  0  0  0  0  0  0  0  0
    5.8457   -0.6250    0.0000 C   0  0  0  0  0  0  0  0  0  0  0  0
    4.5466    1.6250    0.0000 C   0  0  0  0  0  0  0  0  0  0  0  0
    3.2476   -2.1250    0.0000 C   0  0  0  0  0  0  0  0  0  0  0  0
    4.5466   -2.8750    0.0000 C   0  0  0  0  0  0  0  0  0  0  0  0
    1.9486   -2.8750    0.0000 C   0  0  0  0  0  0  0  0  0  0  0  0
   -0.6495    1.6250    0.0000 C   0  0  0  0  0  0  0  0  0  0  0  0
    0.6495    2.3750    0.0000 C   0  0  0  0  0  0  0  0  0  0  0  0
    0.6495    3.8750    0.0000 C   0  0  0  0  0  0  0  0  0  0  0  0
   -0.6495    4.6250    0.0000 C   0  0  0  0  0  0  0  0  0  0  0  0
   -1.9486    3.8750    0.0000 C   0  0  0  0  0  0  0  0  0  0  0  0
   -1.9486    2.3750    0.0000 C   0  0  0  0  0  0  0  0  0  0  0  0
   -1.9486   -2.1250    0.0000 C   0  0  0  0  0  0  0  0  0  0  0  0
  1  2  1  0
  2  3  2  0
  3  4  1  0
  4  5  2  0
  5  6  1  0
  5  7  1  0
  7  8  1  0
  8  9  1  0
  9 10  1  0
 10 11  1  0
 11 12  1  0
 12 13  1  0
 12 14  1  0
 11 15  1  0
 15 16  1  0
 15 17  1  0
  8 18  1  0
 18 19  2  0
 19 20  1  0
 20 21  2  0
 21 22  1  0
 22 23  2  0
  7 24  2  0
 24  2  1  0
 23 18  1  0
M  END
> <Identifier>
60774.0

> <DILI>
0

$$$$

     RDKit          2D

 49 53  0  0  0  0  0  0  0  0999 V2000
    0.6260   -2.4777    0.0000 C   0  0  0  0  0  0  0  0  0  0  0  0
    1.9332   -3.2134    0.0000 C   0  0  0  0  0  0  0  0  0  0  0  0
    3.2403   -3.9492    0.0000 C   0  0  0  0  0  0  0  0  0  0  0  0
    1.1974   -4.5206    0.0000 C   0  0  0  0  0  0  0  0  0  0  0  0
    2.6689   -1.9063    0.0000 N   0  0  0  0  0  0  0  0  0  0  0  0
    4.1688   -1.8899    0.0000 C   0  0  0  0  0  0  0  0  0  0  0  0
    4.9330   -3.1807    0.0000 O   0  0  0  0  0  0  0  0  0  0  0  0
    4.9046   -0.5827    0.0000 C   0  0  0  0  0  0  0  0  0  0  0  0
    6.4045   -0.5664    0.0000 C   0  0  0  0  0  0  0  0  0  0  0  0
    7.1403    0.7408    0.0000 C   0  0  0  0  0  0  0  0  0  0  0  0
    8.6402    0.7572    0.0000 C   0  0  0  0  0  0  0  0  0  0  0  0
    9.3760    2.0643    0.0000 C   0  0  0  0  0  0  0  0  0  0  0  0
    8.6118    3.3551    0.0000 C   0  0  0  0  0  0  0  0  0  0  0  0
    7.1119    3.3387    0.0000 C   0  0  0  0  0  0  0  0  0  0  0  0
    6.3762    2.0316    0.0000 C   0  0  0  0  0  0  0  0  0  0  0  0
    4.8762    2.0152    0.0000 C   0  0  0  0  0  0  0  0  0  0  0  0
    4.1405    0.7080    0.0000 N   0  0  0  0  0  0  0  0  0  0  0  0
    2.6406    0.6916    0.0000 C   0  0  0  0  0  0  0  0  0  0  0  0
    1.8764    1.9824    0.0000 C   0  0  0  0  0  0  0  0  0  0  0  0
    2.6122    3.2896    0.0000 O   0  0  0  0  0  0  0  0  0  0  0  0
    0.3765    1.9660    0.0000 C   0  0  0  0  0  0  0  0  0  0  0  0
   -0.3876    3.2568    0.0000 C   0  0  0  0  0  0  0  0  0  0  0  0
   -1.8875    3.2404    0.0000 C   0  0  0  0  0  0  0  0  0  0  0  0
   -2.6517    4.5312    0.0000 C   0  0  0  0  0  0  0  0  0  0  0  0
   -4.1516    4.5148    0.0000 C   0  0  0  0  0  0  0  0  0  0  0  0
   -4.8874    3.2077    0.0000 C   0  0  0  0  0  0  0  0  0  0  0  0
   -4.1232    1.9169    0.0000 C   0  0  0  0  0  0  0  0  0  0  0  0
   -2.6233    1.9333    0.0000 C   0  0  0  0  0  0  0  0  0  0  0  0
   -0.3593    0.6589    0.0000 N   0  0  0  0  0  0  0  0  0  0  0  0
    0.4049   -0.6319    0.0000 C   0  0  0  0  0  0  0  0  0  0  0  0
    1.9048   -0.6155    0.0000 O   0  0  0  0  0  0  0  0  0  0  0  0
   -0.3309   -1.9390    0.0000 C   0  0  0  0  0  0  0  0  0  0  0  0
    0.4333   -3.2298    0.0000 C   0  0  0  0  0  0  0  0  0  0  0  0
   -0.3025   -4.5370    0.0000 C   0  0  0  0  0  0  0  0  0  0  0  0
    0.4616   -5.8277    0.0000 N   0  0  0  0  0  0  0  0  0  0  0  0
   -1.8024   -4.5533    0.0000 O   0  0  0  0  0  0  0  0  0  0  0  0
   -1.8308   -1.9554    0.0000 N   0  0  0  0  0  0  0  0  0  0  0  0
   -2.5949   -0.6646    0.0000 C   0  0  0  0  0  0  0  0  0  0  0  0
   -1.8592    0.6425    0.0000 O   0  0  0  0  0  0  0  0  0  0  0  0
   -4.0948   -0.6810    0.0000 C   0  0  0  0  0  0  0  0  0  0  0  0
   -4.8306   -1.9882    0.0000 C   0  0  0  0  0  0  0  0  0  0  0  0
   -6.3305   -2.0045    0.0000 C   0  0  0  0  0  0  0  0  0  0  0  0
   -7.0947   -0.7138    0.0000 C   0  0  0  0  0  0  0  0  0  0  0  0
   -8.5946   -0.7302    0.0000 C   0  0  0  0  0  0  0  0  0  0  0  0
   -9.3587    0.5606    0.0000 C   0  0  0  0  0  0  0  0  0  0  0  0
   -8.6229    1.8678    0.0000 C   0  0  0  0  0  0  0  0  0  0  0  0
   -7.1230    1.8841    0.0000 C   0  0  0  0  0  0  0  0  0  0  0  0
   -6.3589    0.5934    0.0000 C   0  0  0  0  0  0  0  0  0  0  0  0
   -4.8590    0.6098    0.0000 N   0  0  0  0  0  0  0  0  0  0  0  0
  1  2  1  0
  2  3  1  0
  2  4  1  0
  2  5  1  0
  5  6  1  0
  6  7  2  0
  6  8  1  0
  8  9  1  0
  9 10  1  0
 10 11  1  0
 11 12  1  0
 12 13  1  0
 13 14  1  0
 14 15  1  0
 15 16  1  0
 16 17  1  0
 17 18  1  0
 18 19  1  0
 19 20  1  0
 19 21  1  0
 21 22  1  0
 22 23  1  0
 23 24  2  0
 24 25  1  0
 25 26  2  0
 26 27  1  0
 27 28  2  0
 21 29  1  0
 29 30  1  0
 30 31  2  0
 30 32  1  0
 32 33  1  0
 33 34  1  0
 34 35  1  0
 34 36  2  0
 32 37  1  0
 37 38  1  0
 38 39  2  0
 38 40  1  0
 40 41  2  0
 41 42  1  0
 42 43  2  0
 43 44  1  0
 44 45  2  0
 45 46  1  0
 46 47  2  0
 47 48  1  0
 48 49  2  0
 17  8  1  0
 28 23  1  0
 49 40  1  0
 15 10  1  0
 48 43  1  0
M  END
> <Identifier>
60787.0

> <DILI>
1

$$$$

     RDKit          2D

 41 44  0  0  0  0  0  0  0  0999 V2000
   -1.8201   -2.1670    0.0000 C   0  0  0  0  0  0  0  0  0  0  0  0
   -0.3238   -2.0608    0.0000 C   0  0  0  0  0  0  0  0  0  0  0  0
    0.5162   -3.3035    0.0000 C   0  0  0  0  0  0  0  0  0  0  0  0
    0.3324   -0.7120    0.0000 C   0  0  0  0  0  0  0  0  0  0  0  0
    1.8093   -0.4500    0.0000 C   0  0  0  0  0  0  0  0  0  0  0  0
    2.8894   -1.4909    0.0000 C   0  0  0  0  0  0  0  0  0  0  0  0
    4.3308   -1.0760    0.0000 O   0  0  0  0  0  0  0  0  0  0  0  0
    2.5279   -2.9467    0.0000 N   0  0  0  0  0  0  0  0  0  0  0  0
    3.6080   -3.9876    0.0000 C   0  0  0  0  0  0  0  0  0  0  0  0
    3.2466   -5.4434    0.0000 C   0  0  0  0  0  0  0  0  0  0  0  0
    4.3266   -6.4843    0.0000 C   0  0  0  0  0  0  0  0  0  0  0  0
    5.7681   -6.0694    0.0000 C   0  0  0  0  0  0  0  0  0  0  0  0
    6.1295   -4.6136    0.0000 C   0  0  0  0  0  0  0  0  0  0  0  0
    5.0495   -3.5727    0.0000 C   0  0  0  0  0  0  0  0  0  0  0  0
    2.0166    1.0356    0.0000 C   0  0  0  0  0  0  0  0  0  0  0  0
    3.3403    1.7411    0.0000 C   0  0  0  0  0  0  0  0  0  0  0  0
    4.6132    0.9475    0.0000 C   0  0  0  0  0  0  0  0  0  0  0  0
    5.9369    1.6531    0.0000 C   0  0  0  0  0  0  0  0  0  0  0  0
    5.9877    3.1522    0.0000 C   0  0  0  0  0  0  0  0  0  0  0  0
    4.7148    3.9458    0.0000 C   0  0  0  0  0  0  0  0  0  0  0  0
    3.3911    3.2403    0.0000 C   0  0  0  0  0  0  0  0  0  0  0  0
    0.6677    1.6918    0.0000 C   0  0  0  0  0  0  0  0  0  0  0  0
    0.4058    3.1687    0.0000 C   0  0  0  0  0  0  0  0  0  0  0  0
    1.5539    4.1341    0.0000 C   0  0  0  0  0  0  0  0  0  0  0  0
    1.2919    5.6110    0.0000 C   0  0  0  0  0  0  0  0  0  0  0  0
   -0.1182    6.1226    0.0000 C   0  0  0  0  0  0  0  0  0  0  0  0
   -0.3801    7.5996    0.0000 F   0  0  0  0  0  0  0  0  0  0  0  0
   -1.2663    5.1573    0.0000 C   0  0  0  0  0  0  0  0  0  0  0  0
   -1.0043    3.6803    0.0000 C   0  0  0  0  0  0  0  0  0  0  0  0
   -0.3732    0.6117    0.0000 N   0  0  0  0  0  0  0  0  0  0  0  0
   -1.8588    0.8190    0.0000 C   0  0  0  0  0  0  0  0  0  0  0  0
   -2.7811   -0.3640    0.0000 C   0  0  0  0  0  0  0  0  0  0  0  0
   -4.2667   -0.1567    0.0000 C   0  0  0  0  0  0  0  0  0  0  0  0
   -4.8300    1.2335    0.0000 O   0  0  0  0  0  0  0  0  0  0  0  0
   -5.1890   -1.3396    0.0000 C   0  0  0  0  0  0  0  0  0  0  0  0
   -6.6746   -1.1324    0.0000 C   0  0  0  0  0  0  0  0  0  0  0  0
   -7.2379    0.2578    0.0000 O   0  0  0  0  0  0  0  0  0  0  0  0
   -7.5969   -2.3153    0.0000 C   0  0  0  0  0  0  0  0  0  0  0  0
   -9.0825   -2.1081    0.0000 C   0  0  0  0  0  0  0  0  0  0  0  0
   -9.6458   -0.7178    0.0000 O   0  0  0  0  0  0  0  0  0  0  0  0
  -10.0048   -3.2910    0.0000 O   0  0  0  0  0  0  0  0  0  0  0  0
  1  2  1  0
  2  3  1  0
  2  4  1  0
  4  5  2  0
  5  6  1  0
  6  7  2  0
  6  8  1  0
  8  9  1  0
  9 10  2  0
 10 11  1  0
 11 12  2  0
 12 13  1  0
 13 14  2  0
  5 15  1  0
 15 16  1  0
 16 17  2  0
 17 18  1  0
 18 19  2  0
 19 20  1  0
 20 21  2  0
 15 22  2  0
 22 23  1  0
 23 24  2  0
 24 25  1  0
 25 26  2  0
 26 27  1  0
 26 28  1  0
 28 29  2  0
 22 30  1  0
 30 31  1  0
 31 32  1  0
 32 33  1  0
 33 34  1  0
 33 35  1  0
 35 36  1  0
 36 37  1  0
 36 38  1  0
 38 39  1  0
 39 40  2  0
 39 41  1  0
 30  4  1  0
 14  9  1  0
 21 16  1  0
 29 23  1  0
M  END
> <Identifier>
60823.0

> <DILI>
1

$$$$

     RDKit          2D

 15 16  0  0  0  0  0  0  0  0999 V2000
   -5.1892   -0.4369    0.0000 N   0  0  0  0  0  0  0  0  0  0  0  0
   -3.7130   -0.1709    0.0000 C   0  0  0  0  0  0  0  0  0  0  0  0
   -3.2052    1.2406    0.0000 C   0  0  0  0  0  0  0  0  0  0  0  0
   -1.7290    1.5065    0.0000 C   0  0  0  0  0  0  0  0  0  0  0  0
   -0.7605    0.3611    0.0000 N   0  0  0  0  0  0  0  0  0  0  0  0
    0.7157    0.6271    0.0000 C   0  0  0  0  0  0  0  0  0  0  0  0
    1.3682    1.9777    0.0000 C   0  0  0  0  0  0  0  0  0  0  0  0
    2.8544    1.7745    0.0000 S   0  0  0  0  0  0  0  0  0  0  0  0
    3.1204    0.2982    0.0000 C   0  0  0  0  0  0  0  0  0  0  0  0
    4.4710   -0.3543    0.0000 C   0  0  0  0  0  0  0  0  0  0  0  0
    4.5812   -1.8502    0.0000 O   0  0  0  0  0  0  0  0  0  0  0  0
    1.7986   -0.4109    0.0000 O   0  0  0  0  0  0  0  0  0  0  0  0
   -1.2683   -1.0504    0.0000 C   0  0  0  0  0  0  0  0  0  0  0  0
   -0.2998   -2.1958    0.0000 O   0  0  0  0  0  0  0  0  0  0  0  0
   -2.7445   -1.3163    0.0000 N   0  0  0  0  0  0  0  0  0  0  0  0
  1  2  1  0
  2  3  1  0
  3  4  2  0
  4  5  1  0
  5  6  1  0
  6  7  1  0
  7  8  1  0
  8  9  1  0
  9 10  1  0
 10 11  1  0
  9 12  1  0
  5 13  1  0
 13 14  2  0
 13 15  1  0
 15  2  2  0
 12  6  1  0
M  END
> <Identifier>
60825.0

> <DILI>
1

$$$$

     RDKit          2D

 21 23  0  0  0  0  0  0  0  0999 V2000
   -6.5636    1.8334    0.0000 C   0  0  0  0  0  0  0  0  0  0  0  0
   -5.1334    2.2857    0.0000 N   0  0  0  0  0  0  0  0  0  0  0  0
   -4.0266    1.2732    0.0000 C   0  0  0  0  0  0  0  0  0  0  0  0
   -2.5964    1.7256    0.0000 C   0  0  0  0  0  0  0  0  0  0  0  0
   -1.4896    0.7131    0.0000 C   0  0  0  0  0  0  0  0  0  0  0  0
   -0.0594    1.1655    0.0000 O   0  0  0  0  0  0  0  0  0  0  0  0
    1.0474    0.1530    0.0000 C   0  0  0  0  0  0  0  0  0  0  0  0
    0.7240   -1.3117    0.0000 C   0  0  0  0  0  0  0  0  0  0  0  0
    1.8308   -2.3241    0.0000 C   0  0  0  0  0  0  0  0  0  0  0  0
    3.2610   -1.8718    0.0000 C   0  0  0  0  0  0  0  0  0  0  0  0
    3.5843   -0.4071    0.0000 C   0  0  0  0  0  0  0  0  0  0  0  0
    5.0145    0.0452    0.0000 C   0  0  0  0  0  0  0  0  0  0  0  0
    5.3379    1.5100    0.0000 C   0  0  0  0  0  0  0  0  0  0  0  0
    4.2311    2.5224    0.0000 C   0  0  0  0  0  0  0  0  0  0  0  0
    2.8009    2.0701    0.0000 C   0  0  0  0  0  0  0  0  0  0  0  0
    2.4775    0.6053    0.0000 C   0  0  0  0  0  0  0  0  0  0  0  0
   -1.8130   -0.7516    0.0000 C   0  0  0  0  0  0  0  0  0  0  0  0
   -0.8181   -1.8741    0.0000 C   0  0  0  0  0  0  0  0  0  0  0  0
   -1.5783   -3.1673    0.0000 C   0  0  0  0  0  0  0  0  0  0  0  0
   -3.0430   -2.8439    0.0000 C   0  0  0  0  0  0  0  0  0  0  0  0
   -3.1881   -1.3509    0.0000 S   0  0  0  0  0  0  0  0  0  0  0  0
  1  2  1  0
  2  3  1  0
  3  4  1  0
  4  5  1  0
  5  6  1  0
  6  7  1  0
  7  8  2  0
  8  9  1  0
  9 10  2  0
 10 11  1  0
 11 12  2  0
 12 13  1  0
 13 14  2  0
 14 15  1  0
 15 16  2  0
  5 17  1  0
 17 18  2  0
 18 19  1  0
 19 20  2  0
 20 21  1  0
 16  7  1  0
 21 17  1  0
 16 11  1  0
M  END
> <Identifier>
60835.0

> <DILI>
1

$$$$

     RDKit          2D

 16 17  0  0  0  0  0  0  0  0999 V2000
   -4.9515   -0.3394    0.0000 N   0  0  0  0  0  0  0  0  0  0  0  0
   -3.4638   -0.1474    0.0000 C   0  0  0  0  0  0  0  0  0  0  0  0
   -2.8863    1.2369    0.0000 N   0  0  0  0  0  0  0  0  0  0  0  0
   -1.3986    1.4290    0.0000 C   0  0  0  0  0  0  0  0  0  0  0  0
   -0.8211    2.8133    0.0000 O   0  0  0  0  0  0  0  0  0  0  0  0
   -0.4885    0.2366    0.0000 N   0  0  0  0  0  0  0  0  0  0  0  0
    0.9992    0.4286    0.0000 C   0  0  0  0  0  0  0  0  0  0  0  0
    1.7183    1.7450    0.0000 C   0  0  0  0  0  0  0  0  0  0  0  0
    3.1925    1.4679    0.0000 S   0  0  0  0  0  0  0  0  0  0  0  0
    3.3845   -0.0197    0.0000 C   0  0  0  0  0  0  0  0  0  0  0  0
    4.7009   -0.7388    0.0000 C   0  0  0  0  0  0  0  0  0  0  0  0
    4.7363   -2.2384    0.0000 O   0  0  0  0  0  0  0  0  0  0  0  0
    2.0290   -0.6621    0.0000 O   0  0  0  0  0  0  0  0  0  0  0  0
   -1.0660   -1.1477    0.0000 C   0  0  0  0  0  0  0  0  0  0  0  0
   -2.5537   -1.3398    0.0000 C   0  0  0  0  0  0  0  0  0  0  0  0
   -3.1312   -2.7241    0.0000 F   0  0  0  0  0  0  0  0  0  0  0  0
  1  2  1  0
  2  3  2  0
  3  4  1  0
  4  5  2  0
  4  6  1  0
  6  7  1  0
  7  8  1  0
  8  9  1  0
  9 10  1  0
 10 11  1  0
 11 12  1  0
 10 13  1  0
  6 14  1  0
 14 15  2  0
 15 16  1  0
 15  2  1  0
 13  7  1  0
M  END
> <Identifier>
60877.0

> <DILI>
1

$$$$

     RDKit          2D

 31 35  0  0  0  0  0  0  0  0999 V2000
   -0.9730   -3.1118    0.0000 C   0  0  0  0  0  0  0  0  0  0  0  0
   -2.2056   -2.2570    0.0000 C   0  0  0  0  0  0  0  0  0  0  0  0
   -3.5622   -2.8970    0.0000 N   0  0  0  0  0  0  0  0  0  0  0  0
   -4.7948   -2.0421    0.0000 C   0  0  0  0  0  0  0  0  0  0  0  0
   -6.1514   -2.6822    0.0000 C   0  0  0  0  0  0  0  0  0  0  0  0
   -4.6707   -0.5473    0.0000 C   0  0  0  0  0  0  0  0  0  0  0  0
   -3.3141    0.0927    0.0000 C   0  0  0  0  0  0  0  0  0  0  0  0
   -2.0816   -0.7621    0.0000 N   0  0  0  0  0  0  0  0  0  0  0  0
   -3.1901    1.5876    0.0000 N   0  0  0  0  0  0  0  0  0  0  0  0
   -1.8335    2.2276    0.0000 C   0  0  0  0  0  0  0  0  0  0  0  0
   -0.6009    1.3728    0.0000 C   0  0  0  0  0  0  0  0  0  0  0  0
   -0.7250   -0.1221    0.0000 C   0  0  0  0  0  0  0  0  0  0  0  0
    0.5076   -0.9769    0.0000 C   0  0  0  0  0  0  0  0  0  0  0  0
    1.8642   -0.3369    0.0000 C   0  0  0  0  0  0  0  0  0  0  0  0
    3.0968   -1.1918    0.0000 C   0  0  0  0  0  0  0  0  0  0  0  0
    2.9728   -2.6866    0.0000 C   0  0  0  0  0  0  0  0  0  0  0  0
    4.2053   -3.5415    0.0000 C   0  0  0  0  0  0  0  0  0  0  0  0
    5.5620   -2.9014    0.0000 C   0  0  0  0  0  0  0  0  0  0  0  0
    5.6860   -1.4066    0.0000 C   0  0  0  0  0  0  0  0  0  0  0  0
    4.4534   -0.5517    0.0000 C   0  0  0  0  0  0  0  0  0  0  0  0
    4.5774    0.9431    0.0000 C   0  0  0  0  0  0  0  0  0  0  0  0
    3.4410    1.9221    0.0000 N   0  0  0  0  0  0  0  0  0  0  0  0
    4.0209    3.3055    0.0000 N   0  0  0  0  0  0  0  0  0  0  0  0
    5.5157    3.1815    0.0000 N   0  0  0  0  0  0  0  0  0  0  0  0
    5.8597    1.7214    0.0000 N   0  0  0  0  0  0  0  0  0  0  0  0
    1.9883    1.1580    0.0000 C   0  0  0  0  0  0  0  0  0  0  0  0
    0.7557    2.0128    0.0000 C   0  0  0  0  0  0  0  0  0  0  0  0
   -4.4227    2.4424    0.0000 C   0  0  0  0  0  0  0  0  0  0  0  0
   -4.2987    3.9373    0.0000 O   0  0  0  0  0  0  0  0  0  0  0  0
   -5.7793    1.8024    0.0000 C   0  0  0  0  0  0  0  0  0  0  0  0
   -5.9033    0.3076    0.0000 C   0  0  0  0  0  0  0  0  0  0  0  0
  1  2  1  0
  2  3  2  0
  3  4  1  0
  4  5  1  0
  4  6  2  0
  6  7  1  0
  7  8  2  0
  7  9  1  0
  9 10  1  0
 10 11  1  0
 11 12  2  0
 12 13  1  0
 13 14  2  0
 14 15  1  0
 15 16  2  0
 16 17  1  0
 17 18  2  0
 18 19  1  0
 19 20  2  0
 20 21  1  0
 21 22  1  0
 22 23  2  0
 23 24  1  0
 24 25  1  0
 14 26  1  0
 26 27  2  0
  9 28  1  0
 28 29  2  0
 28 30  1  0
 30 31  1  0
  8  2  1  0
 27 11  1  0
 31  6  1  0
 20 15  1  0
 25 21  2  0
M  END
> <Identifier>
60919.0

> <DILI>
1

$$$$

     RDKit          2D

 25 26  0  0  0  0  0  0  0  0999 V2000
  -10.5687    1.4539    0.0000 C   0  0  0  0  0  0  0  0  0  0  0  0
   -9.4837    0.4181    0.0000 C   0  0  0  0  0  0  0  0  0  0  0  0
   -8.0442    0.8398    0.0000 C   0  0  0  0  0  0  0  0  0  0  0  0
   -6.9592   -0.1960    0.0000 C   0  0  0  0  0  0  0  0  0  0  0  0
   -5.5197    0.2257    0.0000 C   0  0  0  0  0  0  0  0  0  0  0  0
   -4.4348   -0.8101    0.0000 O   0  0  0  0  0  0  0  0  0  0  0  0
   -2.9953   -0.3884    0.0000 C   0  0  0  0  0  0  0  0  0  0  0  0
   -2.6407    1.0691    0.0000 O   0  0  0  0  0  0  0  0  0  0  0  0
   -1.9103   -1.4242    0.0000 N   0  0  0  0  0  0  0  0  0  0  0  0
   -0.4708   -1.0025    0.0000 C   0  0  0  0  0  0  0  0  0  0  0  0
   -0.1163    0.4550    0.0000 N   0  0  0  0  0  0  0  0  0  0  0  0
    1.3232    0.8767    0.0000 C   0  0  0  0  0  0  0  0  0  0  0  0
    1.6778    2.3342    0.0000 O   0  0  0  0  0  0  0  0  0  0  0  0
    2.4082   -0.1591    0.0000 N   0  0  0  0  0  0  0  0  0  0  0  0
    3.8477    0.2626    0.0000 C   0  0  0  0  0  0  0  0  0  0  0  0
    4.3526    1.6751    0.0000 O   0  0  0  0  0  0  0  0  0  0  0  0
    5.8520    1.6313    0.0000 C   0  0  0  0  0  0  0  0  0  0  0  0
    6.7687    2.8186    0.0000 C   0  0  0  0  0  0  0  0  0  0  0  0
    6.2737    0.1918    0.0000 C   0  0  0  0  0  0  0  0  0  0  0  0
    7.6862   -0.3132    0.0000 O   0  0  0  0  0  0  0  0  0  0  0  0
    5.0350   -0.6541    0.0000 C   0  0  0  0  0  0  0  0  0  0  0  0
    4.9912   -2.1535    0.0000 O   0  0  0  0  0  0  0  0  0  0  0  0
    2.0536   -1.6166    0.0000 C   0  0  0  0  0  0  0  0  0  0  0  0
    0.6141   -2.0383    0.0000 C   0  0  0  0  0  0  0  0  0  0  0  0
    0.2596   -3.4958    0.0000 F   0  0  0  0  0  0  0  0  0  0  0  0
  1  2  1  0
  2  3  1  0
  3  4  1  0
  4  5  1  0
  5  6  1  0
  6  7  1  0
  7  8  2  0
  7  9  1  0
  9 10  1  0
 10 11  2  0
 11 12  1  0
 12 13  2  0
 12 14  1  0
 14 15  1  0
 15 16  1  0
 16 17  1  0
 17 18  1  0
 17 19  1  0
 19 20  1  0
 19 21  1  0
 21 22  1  0
 14 23  1  0
 23 24  2  0
 24 25  1  0
 24 10  1  0
 21 15  1  0
M  END
> <Identifier>
60953.0

> <DILI>
1

$$$$

     RDKit          2D

 30 34  0  0  0  0  0  0  0  0999 V2000
   -8.1431   -0.4565    0.0000 N   0  0  0  0  0  0  0  0  0  0  0  0
   -6.6953   -0.0642    0.0000 C   0  0  0  0  0  0  0  0  0  0  0  0
   -5.6376    0.9993    0.0000 C   0  0  0  0  0  0  0  0  0  0  0  0
   -4.3818    1.8198    0.0000 C   0  0  0  0  0  0  0  0  0  0  0  0
   -3.2135    0.8790    0.0000 N   0  0  0  0  0  0  0  0  0  0  0  0
   -1.7657    1.2713    0.0000 C   0  0  0  0  0  0  0  0  0  0  0  0
   -0.7021    0.2135    0.0000 N   0  0  0  0  0  0  0  0  0  0  0  0
    0.7457    0.6058    0.0000 C   0  0  0  0  0  0  0  0  0  0  0  0
    1.1299    2.0557    0.0000 C   0  0  0  0  0  0  0  0  0  0  0  0
    0.0663    3.1135    0.0000 C   0  0  0  0  0  0  0  0  0  0  0  0
   -1.3815    2.7212    0.0000 C   0  0  0  0  0  0  0  0  0  0  0  0
   -2.4451    3.7789    0.0000 F   0  0  0  0  0  0  0  0  0  0  0  0
    2.5777    2.4480    0.0000 C   0  0  0  0  0  0  0  0  0  0  0  0
    2.9619    3.8979    0.0000 O   0  0  0  0  0  0  0  0  0  0  0  0
    3.6413    1.3903    0.0000 C   0  0  0  0  0  0  0  0  0  0  0  0
    5.0891    1.7825    0.0000 C   0  0  0  0  0  0  0  0  0  0  0  0
    5.4733    3.2324    0.0000 O   0  0  0  0  0  0  0  0  0  0  0  0
    6.1527    0.7248    0.0000 O   0  0  0  0  0  0  0  0  0  0  0  0
    3.2571   -0.0597    0.0000 C   0  0  0  0  0  0  0  0  0  0  0  0
    1.8093   -0.4519    0.0000 N   0  0  0  0  0  0  0  0  0  0  0  0
    1.4251   -1.9019    0.0000 C   0  0  0  0  0  0  0  0  0  0  0  0
   -0.0227   -2.2941    0.0000 C   0  0  0  0  0  0  0  0  0  0  0  0
   -0.4070   -3.7441    0.0000 C   0  0  0  0  0  0  0  0  0  0  0  0
    0.6566   -4.8018    0.0000 C   0  0  0  0  0  0  0  0  0  0  0  0
    0.2724   -6.2518    0.0000 F   0  0  0  0  0  0  0  0  0  0  0  0
    2.1044   -4.4096    0.0000 C   0  0  0  0  0  0  0  0  0  0  0  0
    2.4887   -2.9596    0.0000 C   0  0  0  0  0  0  0  0  0  0  0  0
    3.9365   -2.5674    0.0000 F   0  0  0  0  0  0  0  0  0  0  0  0
   -3.7472   -0.5228    0.0000 C   0  0  0  0  0  0  0  0  0  0  0  0
   -5.2454   -0.4485    0.0000 C   0  0  0  0  0  0  0  0  0  0  0  0
  1  2  1  0
  2  3  1  0
  3  4  1  0
  4  5  1  0
  5  6  1  0
  6  7  2  0
  7  8  1  0
  8  9  2  0
  9 10  1  0
 10 11  2  0
 11 12  1  0
  9 13  1  0
 13 14  2  0
 13 15  1  0
 15 16  1  0
 16 17  2  0
 16 18  1  0
 15 19  2  0
 19 20  1  0
 20 21  1  0
 21 22  2  0
 22 23  1  0
 23 24  2  0
 24 25  1  0
 24 26  1  0
 26 27  2  0
 27 28  1  0
  5 29  1  0
 29 30  1  0
 30  2  1  0
 30  3  1  0
 11  6  1  0
 27 21  1  0
 20  8  1  0
M  END
> <Identifier>
62959.0

> <DILI>
1

$$$$

     RDKit          2D

 21 24  0  0  0  0  0  0  0  0999 V2000
    1.2692    3.4838    0.0000 N   0  0  0  0  0  0  0  0  0  0  0  0
    1.2793    1.9839    0.0000 C   0  0  0  0  0  0  0  0  0  0  0  0
    2.5833    1.2426    0.0000 N   0  0  0  0  0  0  0  0  0  0  0  0
    2.5934   -0.2573    0.0000 C   0  0  0  0  0  0  0  0  0  0  0  0
    3.8975   -0.9985    0.0000 N   0  0  0  0  0  0  0  0  0  0  0  0
    5.1915   -0.2398    0.0000 C   0  0  0  0  0  0  0  0  0  0  0  0
    5.9327    1.0643    0.0000 C   0  0  0  0  0  0  0  0  0  0  0  0
    6.6914   -0.2297    0.0000 C   0  0  0  0  0  0  0  0  0  0  0  0
    1.2995   -1.0161    0.0000 C   0  0  0  0  0  0  0  0  0  0  0  0
    0.9975   -2.4854    0.0000 N   0  0  0  0  0  0  0  0  0  0  0  0
   -0.4932   -2.6522    0.0000 C   0  0  0  0  0  0  0  0  0  0  0  0
   -1.1125   -1.2860    0.0000 N   0  0  0  0  0  0  0  0  0  0  0  0
   -2.5818   -0.9841    0.0000 C   0  0  0  0  0  0  0  0  0  0  0  0
   -3.6897   -1.9952    0.0000 C   0  0  0  0  0  0  0  0  0  0  0  0
   -4.9938   -1.2540    0.0000 C   0  0  0  0  0  0  0  0  0  0  0  0
   -4.6918    0.2153    0.0000 C   0  0  0  0  0  0  0  0  0  0  0  0
   -5.7030    1.3232    0.0000 C   0  0  0  0  0  0  0  0  0  0  0  0
   -5.2491    2.7529    0.0000 O   0  0  0  0  0  0  0  0  0  0  0  0
   -3.2011    0.3821    0.0000 C   0  0  0  0  0  0  0  0  0  0  0  0
   -0.0046   -0.2748    0.0000 C   0  0  0  0  0  0  0  0  0  0  0  0
   -0.0147    1.2251    0.0000 N   0  0  0  0  0  0  0  0  0  0  0  0
  1  2  1  0
  2  3  2  0
  3  4  1  0
  4  5  1  0
  5  6  1  0
  6  7  1  0
  7  8  1  0
  4  9  2  0
  9 10  1  0
 10 11  2  0
 11 12  1  0
 12 13  1  0
 13 14  1  0
 14 15  2  0
 15 16  1  0
 16 17  1  0
 17 18  1  0
 16 19  1  0
 12 20  1  0
 20 21  2  0
 21  2  1  0
  8  6  1  0
 20  9  1  0
 19 13  1  0
M  END
> <Identifier>
65140.0

> <DILI>
1

$$$$

     RDKit          2D

 31 31  0  0  0  0  0  0  0  0999 V2000
   -2.2305   -6.6268    0.0000 C   0  0  0  0  0  0  0  0  0  0  0  0
   -0.9702   -5.8133    0.0000 C   0  0  0  0  0  0  0  0  0  0  0  0
    0.3644   -6.4980    0.0000 O   0  0  0  0  0  0  0  0  0  0  0  0
   -1.0445   -4.3151    0.0000 C   0  0  0  0  0  0  0  0  0  0  0  0
   -2.3792   -3.6304    0.0000 O   0  0  0  0  0  0  0  0  0  0  0  0
    0.2157   -3.5017    0.0000 N   0  0  0  0  0  0  0  0  0  0  0  0
    0.1414   -2.0035    0.0000 C   0  0  0  0  0  0  0  0  0  0  0  0
   -1.1932   -1.3188    0.0000 C   0  0  0  0  0  0  0  0  0  0  0  0
   -2.4535   -2.1323    0.0000 I   0  0  0  0  0  0  0  0  0  0  0  0
   -1.2676    0.1793    0.0000 C   0  0  0  0  0  0  0  0  0  0  0  0
   -2.6022    0.8640    0.0000 C   0  0  0  0  0  0  0  0  0  0  0  0
   -3.8625    0.0506    0.0000 O   0  0  0  0  0  0  0  0  0  0  0  0
   -2.6765    2.3622    0.0000 N   0  0  0  0  0  0  0  0  0  0  0  0
   -4.0112    3.0469    0.0000 C   0  0  0  0  0  0  0  0  0  0  0  0
   -4.0855    4.5450    0.0000 C   0  0  0  0  0  0  0  0  0  0  0  0
   -5.4201    5.2297    0.0000 O   0  0  0  0  0  0  0  0  0  0  0  0
   -5.2714    2.2334    0.0000 C   0  0  0  0  0  0  0  0  0  0  0  0
   -6.6060    2.9181    0.0000 O   0  0  0  0  0  0  0  0  0  0  0  0
   -0.0073    0.9928    0.0000 C   0  0  0  0  0  0  0  0  0  0  0  0
   -0.0817    2.4909    0.0000 I   0  0  0  0  0  0  0  0  0  0  0  0
    1.3273    0.3081    0.0000 C   0  0  0  0  0  0  0  0  0  0  0  0
    2.5876    1.1216    0.0000 C   0  0  0  0  0  0  0  0  0  0  0  0
    2.5132    2.6197    0.0000 O   0  0  0  0  0  0  0  0  0  0  0  0
    3.9222    0.4369    0.0000 N   0  0  0  0  0  0  0  0  0  0  0  0
    5.1825    1.2503    0.0000 C   0  0  0  0  0  0  0  0  0  0  0  0
    6.5171    0.5656    0.0000 C   0  0  0  0  0  0  0  0  0  0  0  0
    7.7773    1.3791    0.0000 O   0  0  0  0  0  0  0  0  0  0  0  0
    5.1081    2.7485    0.0000 C   0  0  0  0  0  0  0  0  0  0  0  0
    6.3684    3.5620    0.0000 O   0  0  0  0  0  0  0  0  0  0  0  0
    1.4017   -1.1901    0.0000 C   0  0  0  0  0  0  0  0  0  0  0  0
    2.7363   -1.8747    0.0000 I   0  0  0  0  0  0  0  0  0  0  0  0
  1  2  1  0
  2  3  1  0
  2  4  1  0
  4  5  2  0
  4  6  1  0
  6  7  1  0
  7  8  2  0
  8  9  1  0
  8 10  1  0
 10 11  1  0
 11 12  2  0
 11 13  1  0
 13 14  1  0
 14 15  1  0
 15 16  1  0
 14 17  1  0
 17 18  1  0
 10 19  2  0
 19 20  1  0
 19 21  1  0
 21 22  1  0
 22 23  2  0
 22 24  1  0
 24 25  1  0
 25 26  1  0
 26 27  1  0
 25 28  1  0
 28 29  1  0
 21 30  2  0
 30 31  1  0
 30  7  1  0
M  END
> <Identifier>
65492.0

> <DILI>
0

$$$$

     RDKit          2D

 13 14  0  0  0  0  0  0  0  0999 V2000
    0.0770    3.2154    0.0000 C   0  0  0  0  0  0  0  0  0  0  0  0
   -0.3305    1.7718    0.0000 C   0  0  0  0  0  0  0  0  0  0  0  0
   -1.7844    1.4029    0.0000 C   0  0  0  0  0  0  0  0  0  0  0  0
   -2.1919   -0.0407    0.0000 C   0  0  0  0  0  0  0  0  0  0  0  0
   -3.6459   -0.4096    0.0000 Br  0  0  0  0  0  0  0  0  0  0  0  0
   -1.1455   -1.1154    0.0000 C   0  0  0  0  0  0  0  0  0  0  0  0
   -1.5530   -2.5590    0.0000 O   0  0  0  0  0  0  0  0  0  0  0  0
    0.3084   -0.7465    0.0000 C   0  0  0  0  0  0  0  0  0  0  0  0
    1.3549   -1.8212    0.0000 N   0  0  0  0  0  0  0  0  0  0  0  0
    2.8088   -1.4523    0.0000 C   0  0  0  0  0  0  0  0  0  0  0  0
    3.2163   -0.0087    0.0000 C   0  0  0  0  0  0  0  0  0  0  0  0
    2.1699    1.0660    0.0000 C   0  0  0  0  0  0  0  0  0  0  0  0
    0.7159    0.6971    0.0000 C   0  0  0  0  0  0  0  0  0  0  0  0
  1  2  1  0
  2  3  2  0
  3  4  1  0
  4  5  1  0
  4  6  2  0
  6  7  1  0
  6  8  1  0
  8  9  2  0
  9 10  1  0
 10 11  2  0
 11 12  1  0
 12 13  2  0
 13  2  1  0
 13  8  1  0
M  END
> <Identifier>
65592.0

> <DILI>
1

$$$$

     RDKit          2D

 25 28  0  0  0  0  0  0  0  0999 V2000
    0.8369    3.1584    0.0000 C   0  0  0  0  0  0  0  0  0  0  0  0
    1.3923    1.7650    0.0000 N   0  0  0  0  0  0  0  0  0  0  0  0
    0.4633    0.5873    0.0000 C   0  0  0  0  0  0  0  0  0  0  0  0
    1.0187   -0.8060    0.0000 C   0  0  0  0  0  0  0  0  0  0  0  0
    0.0897   -1.9837    0.0000 O   0  0  0  0  0  0  0  0  0  0  0  0
   -1.3947   -1.7681    0.0000 C   0  0  0  0  0  0  0  0  0  0  0  0
   -2.3237   -2.9457    0.0000 O   0  0  0  0  0  0  0  0  0  0  0  0
   -1.9501   -0.3747    0.0000 N   0  0  0  0  0  0  0  0  0  0  0  0
   -3.4345   -0.1590    0.0000 C   0  0  0  0  0  0  0  0  0  0  0  0
   -3.9899    1.2344    0.0000 C   0  0  0  0  0  0  0  0  0  0  0  0
   -5.4743    1.4501    0.0000 C   0  0  0  0  0  0  0  0  0  0  0  0
   -6.4033    0.2724    0.0000 C   0  0  0  0  0  0  0  0  0  0  0  0
   -5.8479   -1.1210    0.0000 C   0  0  0  0  0  0  0  0  0  0  0  0
   -4.3635   -1.3367    0.0000 N   0  0  0  0  0  0  0  0  0  0  0  0
   -1.0211    0.8030    0.0000 C   0  0  0  0  0  0  0  0  0  0  0  0
   -1.5765    2.1964    0.0000 O   0  0  0  0  0  0  0  0  0  0  0  0
    2.5031   -1.0217    0.0000 C   0  0  0  0  0  0  0  0  0  0  0  0
    3.0585   -2.4151    0.0000 C   0  0  0  0  0  0  0  0  0  0  0  0
    4.5430   -2.6308    0.0000 C   0  0  0  0  0  0  0  0  0  0  0  0
    5.4720   -1.4531    0.0000 C   0  0  0  0  0  0  0  0  0  0  0  0
    4.9165   -0.0597    0.0000 C   0  0  0  0  0  0  0  0  0  0  0  0
    3.4321    0.1560    0.0000 C   0  0  0  0  0  0  0  0  0  0  0  0
    2.8767    1.5493    0.0000 S   0  0  0  0  0  0  0  0  0  0  0  0
    4.3454    1.8544    0.0000 O   0  0  0  0  0  0  0  0  0  0  0  0
    2.8314    3.0487    0.0000 O   0  0  0  0  0  0  0  0  0  0  0  0
  1  2  1  0
  2  3  1  0
  3  4  2  0
  4  5  1  0
  5  6  1  0
  6  7  2  0
  6  8  1  0
  8  9  1  0
  9 10  2  0
 10 11  1  0
 11 12  2  0
 12 13  1  0
 13 14  2  0
  8 15  1  0
 15 16  2  0
  4 17  1  0
 17 18  2  0
 18 19  1  0
 19 20  2  0
 20 21  1  0
 21 22  2  0
 22 23  1  0
 23 24  2  0
 23 25  2  0
 23  2  1  0
 15  3  1  0
 22 17  1  0
 14  9  1  0
M  END
> <Identifier>
65679.0

> <DILI>
1

$$$$

     RDKit          2D

 26 27  0  0  0  0  0  0  0  0999 V2000
   -9.8935   -3.3067    0.0000 N   0  0  0  0  0  0  0  0  0  0  0  0
   -9.2263   -1.9632    0.0000 C   0  0  0  0  0  0  0  0  0  0  0  0
  -10.0562   -0.7137    0.0000 N   0  0  0  0  0  0  0  0  0  0  0  0
   -7.7293   -1.8693    0.0000 N   0  0  0  0  0  0  0  0  0  0  0  0
   -7.0621   -0.5258    0.0000 C   0  0  0  0  0  0  0  0  0  0  0  0
   -5.5830   -0.2760    0.0000 N   0  0  0  0  0  0  0  0  0  0  0  0
   -5.3636    1.2079    0.0000 C   0  0  0  0  0  0  0  0  0  0  0  0
   -4.0342    1.9026    0.0000 C   0  0  0  0  0  0  0  0  0  0  0  0
   -2.7679    1.0986    0.0000 S   0  0  0  0  0  0  0  0  0  0  0  0
   -1.4384    1.7934    0.0000 C   0  0  0  0  0  0  0  0  0  0  0  0
   -0.1721    0.9894    0.0000 C   0  0  0  0  0  0  0  0  0  0  0  0
    1.1573    1.6841    0.0000 N   0  0  0  0  0  0  0  0  0  0  0  0
    2.4237    0.8801    0.0000 C   0  0  0  0  0  0  0  0  0  0  0  0
    3.7531    1.5748    0.0000 N   0  0  0  0  0  0  0  0  0  0  0  0
    5.0195    0.7709    0.0000 S   0  0  0  0  0  0  0  0  0  0  0  0
    5.8234    2.0372    0.0000 O   0  0  0  0  0  0  0  0  0  0  0  0
    4.2155   -0.4955    0.0000 O   0  0  0  0  0  0  0  0  0  0  0  0
    6.2858   -0.0331    0.0000 C   0  0  0  0  0  0  0  0  0  0  0  0
    6.2227   -1.5318    0.0000 C   0  0  0  0  0  0  0  0  0  0  0  0
    7.4891   -2.3358    0.0000 C   0  0  0  0  0  0  0  0  0  0  0  0
    8.8185   -1.6411    0.0000 C   0  0  0  0  0  0  0  0  0  0  0  0
   10.0849   -2.4450    0.0000 Br  0  0  0  0  0  0  0  0  0  0  0  0
    8.8816   -0.1424    0.0000 C   0  0  0  0  0  0  0  0  0  0  0  0
    7.6153    0.6616    0.0000 C   0  0  0  0  0  0  0  0  0  0  0  0
   -6.7071    1.8751    0.0000 C   0  0  0  0  0  0  0  0  0  0  0  0
   -7.7568    0.8036    0.0000 S   0  0  0  0  0  0  0  0  0  0  0  0
  1  2  1  0
  2  3  1  0
  2  4  2  0
  4  5  1  0
  5  6  2  0
  6  7  1  0
  7  8  1  0
  8  9  1  0
  9 10  1  0
 10 11  1  0
 11 12  1  0
 12 13  2  3
 13 14  1  0
 14 15  1  0
 15 16  2  0
 15 17  2  0
 15 18  1  0
 18 19  2  0
 19 20  1  0
 20 21  2  0
 21 22  1  0
 21 23  1  0
 23 24  2  0
  7 25  2  0
 25 26  1  0
 26  5  1  0
 24 18  1  0
M  END
> <Identifier>
65869.0

> <DILI>
1

$$$$

     RDKit          2D

 30 30  0  0  0  0  0  0  0  0999 V2000
   -7.9408   -1.1893    0.0000 C   0  0  0  0  0  0  0  0  0  0  0  0
   -6.4470   -1.3254    0.0000 C   0  0  0  0  0  0  0  0  0  0  0  0
   -5.5821   -0.0999    0.0000 N   0  0  0  0  0  0  0  0  0  0  0  0
   -6.2111    1.2619    0.0000 C   0  0  0  0  0  0  0  0  0  0  0  0
   -7.7049    1.3981    0.0000 C   0  0  0  0  0  0  0  0  0  0  0  0
   -4.0883   -0.2360    0.0000 C   0  0  0  0  0  0  0  0  0  0  0  0
   -3.2235    0.9895    0.0000 C   0  0  0  0  0  0  0  0  0  0  0  0
   -1.7297    0.8534    0.0000 O   0  0  0  0  0  0  0  0  0  0  0  0
   -0.8648    2.0790    0.0000 C   0  0  0  0  0  0  0  0  0  0  0  0
   -1.4938    3.4407    0.0000 C   0  0  0  0  0  0  0  0  0  0  0  0
   -0.6290    4.6663    0.0000 C   0  0  0  0  0  0  0  0  0  0  0  0
    0.8648    4.5301    0.0000 C   0  0  0  0  0  0  0  0  0  0  0  0
    1.4938    3.1684    0.0000 C   0  0  0  0  0  0  0  0  0  0  0  0
    2.9876    3.0322    0.0000 O   0  0  0  0  0  0  0  0  0  0  0  0
    3.6166    1.6704    0.0000 C   0  0  0  0  0  0  0  0  0  0  0  0
    5.1104    1.5343    0.0000 C   0  0  0  0  0  0  0  0  0  0  0  0
    5.7394    0.1725    0.0000 N   0  0  0  0  0  0  0  0  0  0  0  0
    7.2332    0.0363    0.0000 C   0  0  0  0  0  0  0  0  0  0  0  0
    7.8621   -1.3254    0.0000 C   0  0  0  0  0  0  0  0  0  0  0  0
    4.8745   -1.0531    0.0000 C   0  0  0  0  0  0  0  0  0  0  0  0
    5.5035   -2.4149    0.0000 C   0  0  0  0  0  0  0  0  0  0  0  0
    0.6290    1.9428    0.0000 C   0  0  0  0  0  0  0  0  0  0  0  0
    1.2579    0.5810    0.0000 O   0  0  0  0  0  0  0  0  0  0  0  0
    0.3931   -0.6446    0.0000 C   0  0  0  0  0  0  0  0  0  0  0  0
    1.0221   -2.0063    0.0000 C   0  0  0  0  0  0  0  0  0  0  0  0
    0.1572   -3.2319    0.0000 N   0  0  0  0  0  0  0  0  0  0  0  0
    0.7862   -4.5937    0.0000 C   0  0  0  0  0  0  0  0  0  0  0  0
   -0.0786   -5.8193    0.0000 C   0  0  0  0  0  0  0  0  0  0  0  0
   -1.3366   -3.0957    0.0000 C   0  0  0  0  0  0  0  0  0  0  0  0
   -2.2014   -4.3213    0.0000 C   0  0  0  0  0  0  0  0  0  0  0  0
  1  2  1  0
  2  3  1  0
  3  4  1  0
  4  5  1  0
  3  6  1  0
  6  7  1  0
  7  8  1  0
  8  9  1  0
  9 10  2  0
 10 11  1  0
 11 12  2  0
 12 13  1  0
 13 14  1  0
 14 15  1  0
 15 16  1  0
 16 17  1  0
 17 18  1  0
 18 19  1  0
 17 20  1  0
 20 21  1  0
 13 22  2  0
 22 23  1  0
 23 24  1  0
 24 25  1  0
 25 26  1  0
 26 27  1  0
 27 28  1  0
 26 29  1  0
 29 30  1  0
 22  9  1  0
M  END
> <Identifier>
67425.0

> <DILI>
0

$$$$

     RDKit          2D

 20 22  0  0  0  0  0  0  0  0999 V2000
    5.3845    2.1513    0.0000 C   0  0  0  0  0  0  0  0  0  0  0  0
    4.6678    0.8336    0.0000 N   0  0  0  0  0  0  0  0  0  0  0  0
    3.1683    0.7954    0.0000 C   0  0  0  0  0  0  0  0  0  0  0  0
    2.3855    2.0749    0.0000 C   0  0  0  0  0  0  0  0  0  0  0  0
    0.8859    2.0367    0.0000 C   0  0  0  0  0  0  0  0  0  0  0  0
    0.1693    0.7190    0.0000 C   0  0  0  0  0  0  0  0  0  0  0  0
   -1.3303    0.6808    0.0000 C   0  0  0  0  0  0  0  0  0  0  0  0
   -2.1131    1.9604    0.0000 C   0  0  0  0  0  0  0  0  0  0  0  0
   -3.6126    1.9222    0.0000 C   0  0  0  0  0  0  0  0  0  0  0  0
   -4.3293    0.6045    0.0000 C   0  0  0  0  0  0  0  0  0  0  0  0
   -5.8288    0.5663    0.0000 Cl  0  0  0  0  0  0  0  0  0  0  0  0
   -3.5465   -0.6751    0.0000 C   0  0  0  0  0  0  0  0  0  0  0  0
   -4.2632   -1.9928    0.0000 Cl  0  0  0  0  0  0  0  0  0  0  0  0
   -2.0470   -0.6369    0.0000 C   0  0  0  0  0  0  0  0  0  0  0  0
    0.9521   -0.5605    0.0000 C   0  0  0  0  0  0  0  0  0  0  0  0
    0.2354   -1.8782    0.0000 C   0  0  0  0  0  0  0  0  0  0  0  0
    1.0182   -3.1577    0.0000 C   0  0  0  0  0  0  0  0  0  0  0  0
    2.5177   -3.1196    0.0000 C   0  0  0  0  0  0  0  0  0  0  0  0
    3.2344   -1.8019    0.0000 C   0  0  0  0  0  0  0  0  0  0  0  0
    2.4516   -0.5223    0.0000 C   0  0  0  0  0  0  0  0  0  0  0  0
  1  2  1  0
  2  3  1  0
  3  4  1  0
  4  5  1  0
  5  6  1  0
  6  7  1  0
  7  8  2  0
  8  9  1  0
  9 10  2  0
 10 11  1  0
 10 12  1  0
 12 13  1  0
 12 14  2  0
  6 15  1  0
 15 16  2  0
 16 17  1  0
 17 18  2  0
 18 19  1  0
 19 20  2  0
 20  3  1  0
 14  7  1  0
 20 15  1  0
M  END
> <Identifier>
68617.0

> <DILI>
0

$$$$

     RDKit          2D

 29 31  0  0  0  0  0  0  0  0999 V2000
   -4.5182   -3.2225    0.0000 C   0  0  0  0  0  0  0  0  0  0  0  0
   -3.6771   -1.9805    0.0000 N   0  0  0  0  0  0  0  0  0  0  0  0
   -2.1932   -2.1994    0.0000 C   0  0  0  0  0  0  0  0  0  0  0  0
   -1.8548   -3.6608    0.0000 C   0  0  0  0  0  0  0  0  0  0  0  0
   -0.4201   -4.0984    0.0000 C   0  0  0  0  0  0  0  0  0  0  0  0
    0.6763   -3.0747    0.0000 C   0  0  0  0  0  0  0  0  0  0  0  0
    0.3379   -1.6134    0.0000 C   0  0  0  0  0  0  0  0  0  0  0  0
   -1.0968   -1.1757    0.0000 C   0  0  0  0  0  0  0  0  0  0  0  0
   -1.2136    0.3197    0.0000 C   0  0  0  0  0  0  0  0  0  0  0  0
    0.0831    1.0738    0.0000 N   0  0  0  0  0  0  0  0  0  0  0  0
    1.3845    0.3279    0.0000 C   0  0  0  0  0  0  0  0  0  0  0  0
    2.6812    1.0819    0.0000 C   0  0  0  0  0  0  0  0  0  0  0  0
    3.9825    0.3360    0.0000 C   0  0  0  0  0  0  0  0  0  0  0  0
    5.2792    1.0901    0.0000 C   0  0  0  0  0  0  0  0  0  0  0  0
    6.5806    0.3441    0.0000 C   0  0  0  0  0  0  0  0  0  0  0  0
    7.8773    1.0982    0.0000 C   0  0  0  0  0  0  0  0  0  0  0  0
    9.1787    0.3523    0.0000 C   0  0  0  0  0  0  0  0  0  0  0  0
    9.1834   -1.1477    0.0000 O   0  0  0  0  0  0  0  0  0  0  0  0
   10.4753    1.1063    0.0000 O   0  0  0  0  0  0  0  0  0  0  0  0
   -2.4556    1.1608    0.0000 C   0  0  0  0  0  0  0  0  0  0  0  0
   -2.1264    2.6242    0.0000 C   0  0  0  0  0  0  0  0  0  0  0  0
   -3.2292    3.6411    0.0000 C   0  0  0  0  0  0  0  0  0  0  0  0
   -4.6611    3.1944    0.0000 C   0  0  0  0  0  0  0  0  0  0  0  0
   -5.7639    4.2112    0.0000 Cl  0  0  0  0  0  0  0  0  0  0  0  0
   -4.9903    1.7310    0.0000 C   0  0  0  0  0  0  0  0  0  0  0  0
   -3.8876    0.7142    0.0000 C   0  0  0  0  0  0  0  0  0  0  0  0
   -4.4312   -0.6838    0.0000 S   0  0  0  0  0  0  0  0  0  0  0  0
   -5.5276   -1.7075    0.0000 O   0  0  0  0  0  0  0  0  0  0  0  0
   -5.6732    0.1573    0.0000 O   0  0  0  0  0  0  0  0  0  0  0  0
  1  2  1  0
  2  3  1  0
  3  4  2  0
  4  5  1  0
  5  6  2  0
  6  7  1  0
  7  8  2  0
  8  9  1  0
  9 10  1  0
 10 11  1  0
 11 12  1  0
 12 13  1  0
 13 14  1  0
 14 15  1  0
 15 16  1  0
 16 17  1  0
 17 18  2  0
 17 19  1  0
  9 20  1  0
 20 21  2  0
 21 22  1  0
 22 23  2  0
 23 24  1  0
 23 25  1  0
 25 26  2  0
 26 27  1  0
 27 28  2  0
 27 29  2  0
 27  2  1  0
  8  3  1  0
 26 20  1  0
M  END
> <Identifier>
68870.0

> <DILI>
1

$$$$

     RDKit          2D

 18 19  0  0  0  0  0  0  0  0999 V2000
   -1.1260    2.9685    0.0000 C   0  0  0  0  0  0  0  0  0  0  0  0
   -1.7551    1.6068    0.0000 C   0  0  0  0  0  0  0  0  0  0  0  0
   -3.2266    1.3153    0.0000 N   0  0  0  0  0  0  0  0  0  0  0  0
   -3.4041   -0.1741    0.0000 C   0  0  0  0  0  0  0  0  0  0  0  0
   -4.7134   -0.9060    0.0000 N   0  0  0  0  0  4  0  0  0  0  0  0
   -4.7343   -2.4058    0.0000 O   0  0  0  0  0  0  0  0  0  0  0  0
   -6.0019   -0.1380    0.0000 O   0  0  0  0  0  1  0  0  0  0  0  0
   -2.0424   -0.8032    0.0000 C   0  0  0  0  0  0  0  0  0  0  0  0
   -1.0233    0.2974    0.0000 N   0  0  0  0  0  0  0  0  0  0  0  0
    0.4662    0.1199    0.0000 C   0  0  0  0  0  0  0  0  0  0  0  0
    1.0572   -1.2587    0.0000 C   0  0  0  0  0  0  0  0  0  0  0  0
    2.5466   -1.4363    0.0000 C   0  0  0  0  0  0  0  0  0  0  0  0
    3.4451   -0.2351    0.0000 C   0  0  0  0  0  0  0  0  0  0  0  0
    4.9346   -0.4126    0.0000 N   0  0  0  0  0  4  0  0  0  0  0  0
    5.8330    0.7885    0.0000 O   0  0  0  0  0  0  0  0  0  0  0  0
    5.5256   -1.7913    0.0000 O   0  0  0  0  0  1  0  0  0  0  0  0
    2.8541    1.1436    0.0000 C   0  0  0  0  0  0  0  0  0  0  0  0
    1.3647    1.3211    0.0000 C   0  0  0  0  0  0  0  0  0  0  0  0
  1  2  1  0
  2  3  2  0
  3  4  1  0
  4  5  1  0
  5  6  2  0
  5  7  1  0
  4  8  2  0
  8  9  1  0
  9 10  1  0
 10 11  2  0
 11 12  1  0
 12 13  2  0
 13 14  1  0
 14 15  2  0
 14 16  1  0
 13 17  1  0
 17 18  2  0
  9  2  1  0
 18 10  1  0
M  CHG  4   5   1   7  -1  14   1  16  -1
M  END
> <Identifier>
71900.0

> <DILI>
1

$$$$

     RDKit          2D

 26 29  0  0  0  0  0  0  0  0999 V2000
    0.6974   -3.4467    0.0000 C   0  0  0  0  0  0  0  0  0  0  0  0
    0.2757   -2.0072    0.0000 C   0  0  0  0  0  0  0  0  0  0  0  0
   -1.1818   -1.6527    0.0000 C   0  0  0  0  0  0  0  0  0  0  0  0
   -2.2176   -2.7377    0.0000 F   0  0  0  0  0  0  0  0  0  0  0  0
   -1.6036   -0.2132    0.0000 C   0  0  0  0  0  0  0  0  0  0  0  0
   -3.0611    0.1413    0.0000 N   0  0  0  0  0  0  0  0  0  0  0  0
   -3.4828    1.5808    0.0000 C   0  0  0  0  0  0  0  0  0  0  0  0
   -4.9403    1.9354    0.0000 C   0  0  0  0  0  0  0  0  0  0  0  0
   -5.9761    0.8504    0.0000 N   0  0  0  0  0  0  0  0  0  0  0  0
   -5.5543   -0.5891    0.0000 C   0  0  0  0  0  0  0  0  0  0  0  0
   -6.5901   -1.6741    0.0000 C   0  0  0  0  0  0  0  0  0  0  0  0
   -4.0968   -0.9436    0.0000 C   0  0  0  0  0  0  0  0  0  0  0  0
   -0.5678    0.8718    0.0000 C   0  0  0  0  0  0  0  0  0  0  0  0
    0.8897    0.5172    0.0000 C   0  0  0  0  0  0  0  0  0  0  0  0
    1.3114   -0.9223    0.0000 C   0  0  0  0  0  0  0  0  0  0  0  0
    2.7689   -1.2768    0.0000 C   0  0  0  0  0  0  0  0  0  0  0  0
    3.1907   -2.7163    0.0000 O   0  0  0  0  0  0  0  0  0  0  0  0
    3.8047   -0.1918    0.0000 C   0  0  0  0  0  0  0  0  0  0  0  0
    5.2622   -0.5464    0.0000 C   0  0  0  0  0  0  0  0  0  0  0  0
    6.2980    0.5386    0.0000 O   0  0  0  0  0  0  0  0  0  0  0  0
    5.6839   -1.9859    0.0000 O   0  0  0  0  0  0  0  0  0  0  0  0
    3.3830    1.2477    0.0000 C   0  0  0  0  0  0  0  0  0  0  0  0
    1.9255    1.6022    0.0000 N   0  0  0  0  0  0  0  0  0  0  0  0
    1.5038    3.0417    0.0000 C   0  0  0  0  0  0  0  0  0  0  0  0
    0.4188    4.0775    0.0000 C   0  0  0  0  0  0  0  0  0  0  0  0
    1.8583    4.4992    0.0000 C   0  0  0  0  0  0  0  0  0  0  0  0
  1  2  1  0
  2  3  2  0
  3  4  1  0
  3  5  1  0
  5  6  1  0
  6  7  1  0
  7  8  1  0
  8  9  1  0
  9 10  1  0
 10 11  1  0
 10 12  1  0
  5 13  2  0
 13 14  1  0
 14 15  2  0
 15 16  1  0
 16 17  2  0
 16 18  1  0
 18 19  1  0
 19 20  2  0
 19 21  1  0
 18 22  2  0
 22 23  1  0
 23 24  1  0
 24 25  1  0
 25 26  1  0
 15  2  1  0
 26 24  1  0
 12  6  1  0
 23 14  1  0
M  END
> <Identifier>
72474.0

> <DILI>
1

$$$$

     RDKit          2D

 25 27  0  0  0  0  0  0  0  0999 V2000
   -6.5618   -2.3580    0.0000 C   0  0  0  0  0  0  0  0  0  0  0  0
   -5.3266   -1.5071    0.0000 N   0  0  0  0  0  0  0  0  0  0  0  0
   -3.9720   -2.1514    0.0000 C   0  0  0  0  0  0  0  0  0  0  0  0
   -2.7367   -1.3004    0.0000 C   0  0  0  0  0  0  0  0  0  0  0  0
   -1.3821   -1.9448    0.0000 O   0  0  0  0  0  0  0  0  0  0  0  0
   -0.1469   -1.0938    0.0000 C   0  0  0  0  0  0  0  0  0  0  0  0
    1.2077   -1.7381    0.0000 C   0  0  0  0  0  0  0  0  0  0  0  0
    2.4430   -0.8872    0.0000 C   0  0  0  0  0  0  0  0  0  0  0  0
    2.3237    0.6081    0.0000 C   0  0  0  0  0  0  0  0  0  0  0  0
    3.5590    1.4590    0.0000 C   0  0  0  0  0  0  0  0  0  0  0  0
    4.9135    0.8147    0.0000 C   0  0  0  0  0  0  0  0  0  0  0  0
    6.2310    1.5318    0.0000 S   0  0  0  0  0  0  0  0  0  0  0  0
    7.3202    0.5005    0.0000 C   0  0  0  0  0  0  0  0  0  0  0  0
    8.7947    0.7754    0.0000 O   0  0  0  0  0  0  0  0  0  0  0  0
    6.6758   -0.8541    0.0000 N   0  0  0  0  0  0  0  0  0  0  0  0
    5.1885   -0.6599    0.0000 C   0  0  0  0  0  0  0  0  0  0  0  0
    4.1571   -1.7491    0.0000 O   0  0  0  0  0  0  0  0  0  0  0  0
    0.9691    1.2524    0.0000 C   0  0  0  0  0  0  0  0  0  0  0  0
   -0.2662    0.4014    0.0000 C   0  0  0  0  0  0  0  0  0  0  0  0
   -5.4459   -0.0118    0.0000 C   0  0  0  0  0  0  0  0  0  0  0  0
   -4.2106    0.8391    0.0000 C   0  0  0  0  0  0  0  0  0  0  0  0
   -4.3299    2.3344    0.0000 C   0  0  0  0  0  0  0  0  0  0  0  0
   -5.6845    2.9787    0.0000 C   0  0  0  0  0  0  0  0  0  0  0  0
   -6.9197    2.1277    0.0000 C   0  0  0  0  0  0  0  0  0  0  0  0
   -6.8004    0.6325    0.0000 N   0  0  0  0  0  0  0  0  0  0  0  0
  1  2  1  0
  2  3  1  0
  3  4  1  0
  4  5  1  0
  5  6  1  0
  6  7  2  0
  7  8  1  0
  8  9  2  0
  9 10  1  0
 10 11  1  0
 11 12  1  0
 12 13  1  0
 13 14  2  0
 13 15  1  0
 15 16  1  0
 16 17  2  0
  9 18  1  0
 18 19  2  0
  2 20  1  0
 20 21  2  0
 21 22  1  0
 22 23  2  0
 23 24  1  0
 24 25  2  0
 19  6  1  0
 25 20  1  0
 16 11  1  0
M  END
> <Identifier>
77999.0

> <DILI>
1

$$$$

     RDKit          2D

 26 28  0  0  0  0  0  0  0  0999 V2000
   -0.7703   -3.1677    0.0000 C   0  0  0  0  0  0  0  0  0  0  0  0
   -0.9038   -1.6736    0.0000 C   0  0  0  0  0  0  0  0  0  0  0  0
   -2.2645   -1.0422    0.0000 C   0  0  0  0  0  0  0  0  0  0  0  0
   -2.3980    0.4518    0.0000 C   0  0  0  0  0  0  0  0  0  0  0  0
   -3.7586    1.0832    0.0000 C   0  0  0  0  0  0  0  0  0  0  0  0
   -4.9858    0.2206    0.0000 C   0  0  0  0  0  0  0  0  0  0  0  0
   -6.3464    0.8519    0.0000 C   0  0  0  0  0  0  0  0  0  0  0  0
   -7.5735   -0.0107    0.0000 O   0  0  0  0  0  0  0  0  0  0  0  0
   -6.4799    2.3460    0.0000 O   0  0  0  0  0  0  0  0  0  0  0  0
   -4.8522   -1.2735    0.0000 C   0  0  0  0  0  0  0  0  0  0  0  0
   -3.4916   -1.9049    0.0000 C   0  0  0  0  0  0  0  0  0  0  0  0
    0.3233   -0.8110    0.0000 C   0  0  0  0  0  0  0  0  0  0  0  0
    1.6839   -1.4424    0.0000 C   0  0  0  0  0  0  0  0  0  0  0  0
    2.9110   -0.5797    0.0000 C   0  0  0  0  0  0  0  0  0  0  0  0
    2.7775    0.9143    0.0000 C   0  0  0  0  0  0  0  0  0  0  0  0
    1.4169    1.5457    0.0000 C   0  0  0  0  0  0  0  0  0  0  0  0
    0.1898    0.6831    0.0000 C   0  0  0  0  0  0  0  0  0  0  0  0
   -1.1709    1.3145    0.0000 C   0  0  0  0  0  0  0  0  0  0  0  0
    4.0047    1.7770    0.0000 C   0  0  0  0  0  0  0  0  0  0  0  0
    4.8627    3.0073    0.0000 C   0  0  0  0  0  0  0  0  0  0  0  0
    2.9420    2.8357    0.0000 C   0  0  0  0  0  0  0  0  0  0  0  0
    5.3653    1.1456    0.0000 C   0  0  0  0  0  0  0  0  0  0  0  0
    5.4988   -0.3485    0.0000 C   0  0  0  0  0  0  0  0  0  0  0  0
    4.2717   -1.2111    0.0000 C   0  0  0  0  0  0  0  0  0  0  0  0
    3.4136   -2.4414    0.0000 C   0  0  0  0  0  0  0  0  0  0  0  0
    5.3343   -2.2698    0.0000 C   0  0  0  0  0  0  0  0  0  0  0  0
  1  2  2  0
  2  3  1  0
  3  4  2  0
  4  5  1  0
  5  6  2  0
  6  7  1  0
  7  8  2  0
  7  9  1  0
  6 10  1  0
 10 11  2  0
  2 12  1  0
 12 13  2  0
 13 14  1  0
 14 15  2  0
 15 16  1  0
 16 17  2  0
 17 18  1  0
 15 19  1  0
 19 20  1  0
 19 21  1  0
 19 22  1  0
 22 23  1  0
 23 24  1  0
 24 25  1  0
 24 26  1  0
 11  3  1  0
 17 12  1  0
 24 14  1  0
M  END
> <Identifier>
82146.0

> <DILI>
1

$$$$

     RDKit          2D

 52 54  0  0  0  0  0  0  0  0999 V2000
   -5.6690   -4.0811    0.0000 C   0  0  0  0  0  0  0  0  0  0  0  0
   -4.3470   -4.7898    0.0000 C   0  0  0  0  0  0  0  0  0  0  0  0
   -3.0722   -3.9993    0.0000 C   0  0  0  0  0  0  0  0  0  0  0  0
   -3.5593   -2.5806    0.0000 O   0  0  0  0  0  0  0  0  0  0  0  0
   -3.3826   -1.0910    0.0000 C   0  0  0  0  0  0  0  0  0  0  0  0
   -4.7955   -0.5873    0.0000 O   0  0  0  0  0  0  0  0  0  0  0  0
   -2.5771    0.1744    0.0000 C   0  0  0  0  0  0  0  0  0  0  0  0
   -3.7302    0.8764    0.0000 C   0  0  0  0  0  0  0  0  0  0  0  0
   -1.3023    0.9649    0.0000 C   0  0  0  0  0  0  0  0  0  0  0  0
   -1.7894    2.3836    0.0000 O   0  0  0  0  0  0  0  0  0  0  0  0
   -3.2616    2.6712    0.0000 C   0  0  0  0  0  0  0  0  0  0  0  0
   -3.7486    4.0899    0.0000 C   0  0  0  0  0  0  0  0  0  0  0  0
   -5.2208    4.3774    0.0000 C   0  0  0  0  0  0  0  0  0  0  0  0
   -6.5059    5.1511    0.0000 C   0  0  0  0  0  0  0  0  0  0  0  0
   -4.6820    5.7773    0.0000 O   0  0  0  0  0  0  0  0  0  0  0  0
   -5.6249    6.9439    0.0000 C   0  0  0  0  0  0  0  0  0  0  0  0
   -6.2059    3.2462    0.0000 C   0  0  0  0  0  0  0  0  0  0  0  0
   -7.6781    3.5338    0.0000 O   0  0  0  0  0  0  0  0  0  0  0  0
   -5.7189    1.8275    0.0000 C   0  0  0  0  0  0  0  0  0  0  0  0
   -6.7040    0.6963    0.0000 C   0  0  0  0  0  0  0  0  0  0  0  0
   -4.2467    1.5400    0.0000 O   0  0  0  0  0  0  0  0  0  0  0  0
    0.1892    1.1241    0.0000 C   0  0  0  0  0  0  0  0  0  0  0  0
    0.3659    2.6136    0.0000 C   0  0  0  0  0  0  0  0  0  0  0  0
    1.6021    0.6203    0.0000 C   0  0  0  0  0  0  0  0  0  0  0  0
    2.4076    1.8857    0.0000 O   0  0  0  0  0  0  0  0  0  0  0  0
    3.9062    1.8208    0.0000 C   0  0  0  0  0  0  0  0  0  0  0  0
    4.5993    0.4905    0.0000 O   0  0  0  0  0  0  0  0  0  0  0  0
    6.0979    0.4256    0.0000 C   0  0  0  0  0  0  0  0  0  0  0  0
    6.7910   -0.9047    0.0000 C   0  0  0  0  0  0  0  0  0  0  0  0
    6.9034    1.6910    0.0000 C   0  0  0  0  0  0  0  0  0  0  0  0
    6.2103    3.0212    0.0000 C   0  0  0  0  0  0  0  0  0  0  0  0
    7.0158    4.2866    0.0000 N   0  0  0  0  0  0  0  0  0  0  0  0
    8.5144    4.2217    0.0000 C   0  0  0  0  0  0  0  0  0  0  0  0
    6.3227    5.6169    0.0000 C   0  0  0  0  0  0  0  0  0  0  0  0
    4.7117    3.0862    0.0000 C   0  0  0  0  0  0  0  0  0  0  0  0
    4.0186    4.4164    0.0000 O   0  0  0  0  0  0  0  0  0  0  0  0
    2.6565   -0.4466    0.0000 C   0  0  0  0  0  0  0  0  0  0  0  0
    3.2644    0.9247    0.0000 C   0  0  0  0  0  0  0  0  0  0  0  0
    4.1551   -0.5115    0.0000 O   0  0  0  0  0  0  0  0  0  0  0  0
    4.7332    0.0374    0.0000 C   0  0  0  0  0  0  0  0  0  0  0  0
    3.1436   -1.8653    0.0000 C   0  0  0  0  0  0  0  0  0  0  0  0
    2.9669   -3.3548    0.0000 C   0  0  0  0  0  0  0  0  0  0  0  0
    4.3797   -3.8586    0.0000 C   0  0  0  0  0  0  0  0  0  0  0  0
    2.1614   -4.6202    0.0000 C   0  0  0  0  0  0  0  0  0  0  0  0
    3.2157   -5.6871    0.0000 O   0  0  0  0  0  0  0  0  0  0  0  0
    0.8866   -5.4107    0.0000 C   0  0  0  0  0  0  0  0  0  0  0  0
    1.3737   -6.8295    0.0000 C   0  0  0  0  0  0  0  0  0  0  0  0
   -0.6049   -5.5699    0.0000 C   0  0  0  0  0  0  0  0  0  0  0  0
   -0.7817   -7.0595    0.0000 O   0  0  0  0  0  0  0  0  0  0  0  0
   -2.0178   -5.0662    0.0000 C   0  0  0  0  0  0  0  0  0  0  0  0
   -1.9706   -6.5654    0.0000 C   0  0  0  0  0  0  0  0  0  0  0  0
   -3.3962   -5.6579    0.0000 O   0  0  0  0  0  0  0  0  0  0  0  0
  1  2  1  0
  2  3  1  0
  3  4  1  0
  4  5  1  0
  5  6  2  0
  5  7  1  0
  7  8  1  0
  7  9  1  0
  9 10  1  0
 10 11  1  0
 11 12  1  0
 12 13  1  0
 13 14  1  0
 13 15  1  0
 15 16  1  0
 13 17  1  0
 17 18  1  0
 17 19  1  0
 19 20  1  0
 19 21  1  0
  9 22  1  0
 22 23  1  0
 22 24  1  0
 24 25  1  0
 25 26  1  0
 26 27  1  0
 27 28  1  0
 28 29  1  0
 28 30  1  0
 30 31  1  0
 31 32  1  0
 32 33  1  0
 32 34  1  0
 31 35  1  0
 35 36  1  0
 24 37  1  0
 37 38  1  0
 37 39  1  0
 39 40  1  0
 37 41  1  0
 41 42  1  0
 42 43  1  0
 42 44  1  0
 44 45  2  0
 44 46  1  0
 46 47  1  0
 46 48  1  0
 48 49  1  0
 48 50  1  0
 50 51  1  0
 50 52  1  0
 50  3  1  0
 21 11  1  0
 35 26  1  0
M  END
> <Identifier>
84029.0

> <DILI>
1

$$$$

     RDKit          2D

 28 29  0  0  0  0  0  0  0  0999 V2000
   -5.9830   -3.0658    0.0000 C   0  0  0  0  0  0  0  0  0  0  0  0
   -5.3146   -1.7229    0.0000 C   0  0  0  0  0  0  0  0  0  0  0  0
   -6.1433   -0.4726    0.0000 C   0  0  0  0  0  0  0  0  0  0  0  0
   -3.8174   -1.6304    0.0000 C   0  0  0  0  0  0  0  0  0  0  0  0
   -3.1490   -0.2876    0.0000 C   0  0  0  0  0  0  0  0  0  0  0  0
   -1.6518   -0.1951    0.0000 N   0  0  0  0  0  0  0  0  0  0  0  0
   -0.8231   -1.4454    0.0000 C   0  0  0  0  0  0  0  0  0  0  0  0
   -1.4916   -2.7882    0.0000 O   0  0  0  0  0  0  0  0  0  0  0  0
    0.6740   -1.3528    0.0000 C   0  0  0  0  0  0  0  0  0  0  0  0
    1.5027   -2.6031    0.0000 C   0  0  0  0  0  0  0  0  0  0  0  0
    2.9999   -2.5106    0.0000 C   0  0  0  0  0  0  0  0  0  0  0  0
    3.8286   -3.7609    0.0000 C   0  0  0  0  0  0  0  0  0  0  0  0
    5.3257   -3.6684    0.0000 C   0  0  0  0  0  0  0  0  0  0  0  0
    5.9942   -2.3255    0.0000 C   0  0  0  0  0  0  0  0  0  0  0  0
    5.1655   -1.0752    0.0000 C   0  0  0  0  0  0  0  0  0  0  0  0
    3.6683   -1.1678    0.0000 C   0  0  0  0  0  0  0  0  0  0  0  0
    1.3425   -0.0100    0.0000 N   0  0  0  0  0  0  0  0  0  0  0  0
    0.5138    1.2403    0.0000 C   0  0  0  0  0  0  0  0  0  0  0  0
   -0.9834    1.1478    0.0000 O   0  0  0  0  0  0  0  0  0  0  0  0
    1.1822    2.5831    0.0000 C   0  0  0  0  0  0  0  0  0  0  0  0
    2.6793    2.6757    0.0000 C   0  0  0  0  0  0  0  0  0  0  0  0
    3.3478    4.0185    0.0000 N   0  0  0  0  0  0  0  0  0  0  0  0
    2.5191    5.2688    0.0000 C   0  0  0  0  0  0  0  0  0  0  0  0
    1.0219    5.1763    0.0000 C   0  0  0  0  0  0  0  0  0  0  0  0
    0.3535    3.8334    0.0000 N   0  0  0  0  0  0  0  0  0  0  0  0
   -3.9777    0.9627    0.0000 B   0  0  0  0  0  0  0  0  0  0  0  0
   -5.4748    0.8702    0.0000 O   0  0  0  0  0  0  0  0  0  0  0  0
   -3.3092    2.3055    0.0000 O   0  0  0  0  0  0  0  0  0  0  0  0
  1  2  1  0
  2  3  1  0
  2  4  1  0
  4  5  1  0
  5  6  1  0
  6  7  1  0
  7  8  2  0
  7  9  1  0
  9 10  1  0
 10 11  1  0
 11 12  2  0
 12 13  1  0
 13 14  2  0
 14 15  1  0
 15 16  2  0
  9 17  1  0
 17 18  1  0
 18 19  2  0
 18 20  1  0
 20 21  2  0
 21 22  1  0
 22 23  2  0
 23 24  1  0
 24 25  2  0
  5 26  1  0
 26 27  1  0
 26 28  1  0
 16 11  1  0
 25 20  1  0
M  END
> <Identifier>
93860.0

> <DILI>
1

$$$$

     RDKit          2D

 39 42  0  0  0  0  0  0  0  0999 V2000
   -4.4966   -5.8491    0.0000 C   0  0  0  0  0  0  0  0  0  0  0  0
   -3.8368   -4.5020    0.0000 O   0  0  0  0  0  0  0  0  0  0  0  0
   -4.6736   -3.2571    0.0000 C   0  0  0  0  0  0  0  0  0  0  0  0
   -6.1701   -3.3593    0.0000 C   0  0  0  0  0  0  0  0  0  0  0  0
   -7.0069   -2.1144    0.0000 C   0  0  0  0  0  0  0  0  0  0  0  0
   -6.3471   -0.7672    0.0000 C   0  0  0  0  0  0  0  0  0  0  0  0
   -4.8506   -0.6651    0.0000 C   0  0  0  0  0  0  0  0  0  0  0  0
   -4.0138   -1.9100    0.0000 C   0  0  0  0  0  0  0  0  0  0  0  0
   -2.5173   -1.8078    0.0000 O   0  0  0  0  0  0  0  0  0  0  0  0
   -1.8575   -0.4607    0.0000 C   0  0  0  0  0  0  0  0  0  0  0  0
   -0.3610   -0.3585    0.0000 C   0  0  0  0  0  0  0  0  0  0  0  0
    0.4757   -1.6034    0.0000 N   0  0  0  0  0  0  0  0  0  0  0  0
    1.9722   -1.5013    0.0000 S   0  0  0  0  0  0  0  0  0  0  0  0
    1.8701   -0.0047    0.0000 O   0  0  0  0  0  0  0  0  0  0  0  0
    2.0744   -2.9978    0.0000 O   0  0  0  0  0  0  0  0  0  0  0  0
    3.4687   -1.3991    0.0000 C   0  0  0  0  0  0  0  0  0  0  0  0
    4.3055   -2.6440    0.0000 C   0  0  0  0  0  0  0  0  0  0  0  0
    5.8020   -2.5418    0.0000 C   0  0  0  0  0  0  0  0  0  0  0  0
    6.4618   -1.1947    0.0000 C   0  0  0  0  0  0  0  0  0  0  0  0
    7.9583   -1.0925    0.0000 C   0  0  0  0  0  0  0  0  0  0  0  0
    8.0605   -2.5890    0.0000 C   0  0  0  0  0  0  0  0  0  0  0  0
    7.8561    0.4040    0.0000 C   0  0  0  0  0  0  0  0  0  0  0  0
    9.4548   -0.9904    0.0000 C   0  0  0  0  0  0  0  0  0  0  0  0
    5.6250    0.0502    0.0000 C   0  0  0  0  0  0  0  0  0  0  0  0
    4.1285   -0.0520    0.0000 C   0  0  0  0  0  0  0  0  0  0  0  0
    0.2987    0.9886    0.0000 N   0  0  0  0  0  0  0  0  0  0  0  0
   -0.5380    2.2335    0.0000 C   0  0  0  0  0  0  0  0  0  0  0  0
    0.1217    3.5806    0.0000 C   0  0  0  0  0  0  0  0  0  0  0  0
    1.6183    3.6828    0.0000 N   0  0  0  0  0  0  0  0  0  0  0  0
    2.2780    5.0299    0.0000 C   0  0  0  0  0  0  0  0  0  0  0  0
    1.4413    6.2749    0.0000 C   0  0  0  0  0  0  0  0  0  0  0  0
   -0.0552    6.1727    0.0000 C   0  0  0  0  0  0  0  0  0  0  0  0
   -0.7150    4.8256    0.0000 N   0  0  0  0  0  0  0  0  0  0  0  0
   -2.0345    2.1313    0.0000 N   0  0  0  0  0  0  0  0  0  0  0  0
   -2.6943    0.7842    0.0000 C   0  0  0  0  0  0  0  0  0  0  0  0
   -4.1908    0.6821    0.0000 O   0  0  0  0  0  0  0  0  0  0  0  0
   -5.0276    1.9270    0.0000 C   0  0  0  0  0  0  0  0  0  0  0  0
   -6.5241    1.8248    0.0000 C   0  0  0  0  0  0  0  0  0  0  0  0
   -7.3608    3.0697    0.0000 O   0  0  0  0  0  0  0  0  0  0  0  0
  1  2  1  0
  2  3  1  0
  3  4  2  0
  4  5  1  0
  5  6  2  0
  6  7  1  0
  7  8  2  0
  8  9  1  0
  9 10  1  0
 10 11  1  0
 11 12  1  0
 12 13  1  0
 13 14  2  0
 13 15  2  0
 13 16  1  0
 16 17  2  0
 17 18  1  0
 18 19  2  0
 19 20  1  0
 20 21  1  0
 20 22  1  0
 20 23  1  0
 19 24  1  0
 24 25  2  0
 11 26  2  0
 26 27  1  0
 27 28  1  0
 28 29  2  0
 29 30  1  0
 30 31  2  0
 31 32  1  0
 32 33  2  0
 27 34  2  0
 34 35  1  0
 35 36  1  0
 36 37  1  0
 37 38  1  0
 38 39  1  0
  8  3  1  0
 35 10  2  0
 25 16  1  0
 33 28  1  0
M  END
> <Identifier>
104865.0

> <DILI>
1

$$$$

     RDKit          2D

 87 90  0  0  0  0  0  0  0  0999 V2000
   -0.7422   -2.9241    0.0000 C   0  0  0  0  0  0  0  0  0  0  0  0
    0.1951   -1.7530    0.0000 C   0  0  0  0  0  0  0  0  0  0  0  0
   -0.3505   -0.3557    0.0000 C   0  0  0  0  0  0  0  0  0  0  0  0
    1.1203   -0.0611    0.0000 C   0  0  0  0  0  0  0  0  0  0  0  0
    2.1108   -1.1875    0.0000 C   0  0  0  0  0  0  0  0  0  0  0  0
    3.5816   -0.8929    0.0000 C   0  0  0  0  0  0  0  0  0  0  0  0
    4.0618    0.5282    0.0000 C   0  0  0  0  0  0  0  0  0  0  0  0
    3.0713    1.6546    0.0000 C   0  0  0  0  0  0  0  0  0  0  0  0
    1.6005    1.3600    0.0000 C   0  0  0  0  0  0  0  0  0  0  0  0
   -0.3853    1.1439    0.0000 C   0  0  0  0  0  0  0  0  0  0  0  0
    0.8960    1.9238    0.0000 O   0  0  0  0  0  0  0  0  0  0  0  0
   -1.7013    1.8636    0.0000 N   0  0  0  0  0  0  0  0  0  0  0  0
   -2.9826    1.0837    0.0000 C   0  0  0  0  0  0  0  0  0  0  0  0
   -4.2987    1.8034    0.0000 O   0  0  0  0  0  0  0  0  0  0  0  0
   -2.9479   -0.4159    0.0000 N   0  0  0  0  0  0  0  0  0  0  0  0
   -1.6318   -1.1356    0.0000 C   0  0  0  0  0  0  0  0  0  0  0  0
   -1.5970   -2.6352    0.0000 O   0  0  0  0  0  0  0  0  0  0  0  0
   10.4903    3.8530    0.0000 C   0  0  0  0  0  0  0  0  0  0  0  0
    9.7661    5.1666    0.0000 C   0  0  0  0  0  0  0  0  0  0  0  0
    8.2664    5.1962    0.0000 C   0  0  0  0  0  0  0  0  0  0  0  0
    7.5421    6.5097    0.0000 C   0  0  0  0  0  0  0  0  0  0  0  0
    6.0424    6.5393    0.0000 O   0  0  0  0  0  0  0  0  0  0  0  0
    5.3182    7.8529    0.0000 C   0  0  0  0  0  0  0  0  0  0  0  0
    3.8184    7.8824    0.0000 C   0  0  0  0  0  0  0  0  0  0  0  0
    3.0942    9.1960    0.0000 C   0  0  0  0  0  0  0  0  0  0  0  0
    1.5945    9.2256    0.0000 N   0  0  0  0  0  0  0  0  0  0  0  0
    0.8190    7.9416    0.0000 C   0  0  0  0  0  0  0  0  0  0  0  0
    1.5433    6.6280    0.0000 O   0  0  0  0  0  0  0  0  0  0  0  0
   -0.6807    7.9711    0.0000 N   0  0  0  0  0  0  0  0  0  0  0  0
   -1.4561    6.6871    0.0000 C   0  0  0  0  0  0  0  0  0  0  0  0
   -2.9558    6.7167    0.0000 C   0  0  0  0  0  0  0  0  0  0  0  0
   -3.7313    5.4327    0.0000 C   0  0  0  0  0  0  0  0  0  0  0  0
   -5.2310    5.4622    0.0000 O   0  0  0  0  0  0  0  0  0  0  0  0
   -6.0065    4.1782    0.0000 C   0  0  0  0  0  0  0  0  0  0  0  0
   -7.5062    4.2078    0.0000 C   0  0  0  0  0  0  0  0  0  0  0  0
   -8.2816    2.9238    0.0000 C   0  0  0  0  0  0  0  0  0  0  0  0
   -9.7813    2.9533    0.0000 C   0  0  0  0  0  0  0  0  0  0  0  0
   -3.6801    8.0302    0.0000 O   0  0  0  0  0  0  0  0  0  0  0  0
   -5.1798    8.0598    0.0000 C   0  0  0  0  0  0  0  0  0  0  0  0
   -5.9041    9.3734    0.0000 N   0  0  0  0  0  0  0  0  0  0  0  0
   -5.9553    6.7758    0.0000 O   0  0  0  0  0  0  0  0  0  0  0  0
   -1.4049    9.2847    0.0000 C   0  0  0  0  0  0  0  0  0  0  0  0
   -2.9046    9.3142    0.0000 O   0  0  0  0  0  0  0  0  0  0  0  0
   -0.6295   10.5687    0.0000 C   0  0  0  0  0  0  0  0  0  0  0  0
   -2.0286   11.1094    0.0000 C   0  0  0  0  0  0  0  0  0  0  0  0
   -2.2599   12.5915    0.0000 C   0  0  0  0  0  0  0  0  0  0  0  0
   -0.3399   12.0405    0.0000 C   0  0  0  0  0  0  0  0  0  0  0  0
    1.0794   12.5256    0.0000 C   0  0  0  0  0  0  0  0  0  0  0  0
    1.3690   13.9974    0.0000 C   0  0  0  0  0  0  0  0  0  0  0  0
    0.2391   14.9841    0.0000 C   0  0  0  0  0  0  0  0  0  0  0  0
   -1.1802   14.4989    0.0000 C   0  0  0  0  0  0  0  0  0  0  0  0
   -1.4698   13.0271    0.0000 C   0  0  0  0  0  0  0  0  0  0  0  0
    0.8702   10.5391    0.0000 C   0  0  0  0  0  0  0  0  0  0  0  0
    1.6457   11.8231    0.0000 O   0  0  0  0  0  0  0  0  0  0  0  0
    3.0430    6.5984    0.0000 O   0  0  0  0  0  0  0  0  0  0  0  0
    3.7672    5.2849    0.0000 C   0  0  0  0  0  0  0  0  0  0  0  0
    2.9918    4.0009    0.0000 N   0  0  0  0  0  0  0  0  0  0  0  0
    5.2670    5.2553    0.0000 O   0  0  0  0  0  0  0  0  0  0  0  0
    5.0618   -1.4558    0.0000 C   0  0  0  0  0  0  0  0  0  0  0  0
    6.4677   -1.9788    0.0000 C   0  0  0  0  0  0  0  0  0  0  0  0
    7.6235   -1.0227    0.0000 C   0  0  0  0  0  0  0  0  0  0  0  0
    9.0294   -1.5456    0.0000 C   0  0  0  0  0  0  0  0  0  0  0  0
   10.1853   -0.5895    0.0000 O   0  0  0  0  0  0  0  0  0  0  0  0
   11.5912   -1.1124    0.0000 C   0  0  0  0  0  0  0  0  0  0  0  0
   12.7470   -0.1564    0.0000 C   0  0  0  0  0  0  0  0  0  0  0  0
   14.1529   -0.6793    0.0000 C   0  0  0  0  0  0  0  0  0  0  0  0
   15.3087    0.2768    0.0000 N   0  0  0  0  0  0  0  0  0  0  0  0
   15.0586    1.7558    0.0000 C   0  0  0  0  0  0  0  0  0  0  0  0
   13.6527    2.2787    0.0000 O   0  0  0  0  0  0  0  0  0  0  0  0
   16.2144    2.7119    0.0000 N   0  0  0  0  0  0  0  0  0  0  0  0
   17.6203    2.1890    0.0000 C   0  0  0  0  0  0  0  0  0  0  0  0
   18.7761    3.1450    0.0000 O   0  0  0  0  0  0  0  0  0  0  0  0
   17.8704    0.7100    0.0000 C   0  0  0  0  0  0  0  0  0  0  0  0
   19.2835    1.2131    0.0000 C   0  0  0  0  0  0  0  0  0  0  0  0
   20.4258    0.2408    0.0000 C   0  0  0  0  0  0  0  0  0  0  0  0
   18.6113   -0.5943    0.0000 C   0  0  0  0  0  0  0  0  0  0  0  0
   17.8521   -1.8881    0.0000 C   0  0  0  0  0  0  0  0  0  0  0  0
   18.5930   -3.1923    0.0000 C   0  0  0  0  0  0  0  0  0  0  0  0
   20.0930   -3.2029    0.0000 C   0  0  0  0  0  0  0  0  0  0  0  0
   20.8521   -1.9091    0.0000 C   0  0  0  0  0  0  0  0  0  0  0  0
   20.1112   -0.6049    0.0000 C   0  0  0  0  0  0  0  0  0  0  0  0
   16.7146   -0.2461    0.0000 C   0  0  0  0  0  0  0  0  0  0  0  0
   16.9647   -1.7251    0.0000 O   0  0  0  0  0  0  0  0  0  0  0  0
   12.4969    1.3226    0.0000 O   0  0  0  0  0  0  0  0  0  0  0  0
   11.0910    1.8456    0.0000 C   0  0  0  0  0  0  0  0  0  0  0  0
   10.8409    3.3246    0.0000 N   0  0  0  0  0  0  0  0  0  0  0  0
    9.9352    0.8895    0.0000 O   0  0  0  0  0  0  0  0  0  0  0  0
  1  2  1  0
  2  3  1  0
  3  4  1  0
  4  5  2  0
  5  6  1  0
  6  7  2  0
  7  8  1  0
  8  9  2  0
  3 10  1  0
 10 11  2  0
 10 12  1  0
 12 13  1  0
 13 14  2  0
 13 15  1  0
 15 16  1  0
 16 17  2  0
 18 19  1  0
 19 20  1  0
 20 21  1  0
 21 22  1  0
 22 23  1  0
 23 24  1  0
 24 25  1  0
 25 26  1  0
 26 27  1  0
 27 28  2  0
 27 29  1  0
 29 30  1  0
 30 31  1  0
 31 32  1  0
 32 33  1  0
 33 34  1  0
 34 35  1  0
 35 36  1  0
 36 37  1  0
 31 38  1  0
 38 39  1  0
 39 40  1  0
 39 41  2  0
 29 42  1  0
 42 43  2  0
 42 44  1  0
 44 45  1  0
 45 46  1  0
 44 47  1  0
 47 48  2  0
 48 49  1  0
 49 50  2  0
 50 51  1  0
 51 52  2  0
 44 53  1  0
 53 54  2  0
 24 55  1  0
 55 56  1  0
 56 57  1  0
 56 58  2  0
 59 60  1  0
 60 61  1  0
 61 62  1  0
 62 63  1  0
 63 64  1  0
 64 65  1  0
 65 66  1  0
 66 67  1  0
 67 68  1  0
 68 69  2  0
 68 70  1  0
 70 71  1  0
 71 72  2  0
 71 73  1  0
 73 74  1  0
 74 75  1  0
 73 76  1  0
 76 77  2  0
 77 78  1  0
 78 79  2  0
 79 80  1  0
 80 81  2  0
 73 82  1  0
 82 83  2  0
 65 84  1  0
 84 85  1  0
 85 86  1  0
 85 87  2  0
 16  3  1  0
 53 26  1  0
 82 67  1  0
  9  4  1  0
 52 47  1  0
 81 76  1  0
M  END
> <Identifier>
114965.0

> <DILI>
1

$$$$

     RDKit          2D

 28 31  0  0  0  0  0  0  0  0999 V2000
   -4.6059   -2.2159    0.0000 C   0  0  0  0  0  0  0  0  0  0  0  0
   -3.2864   -1.5026    0.0000 C   0  0  0  0  0  0  0  0  0  0  0  0
   -1.9337   -2.1508    0.0000 C   0  0  0  0  0  0  0  0  0  0  0  0
   -0.8991   -1.0647    0.0000 C   0  0  0  0  0  0  0  0  0  0  0  0
    0.6003   -1.1067    0.0000 C   0  0  0  0  0  0  0  0  0  0  0  0
    1.3136   -2.4262    0.0000 C   0  0  0  0  0  0  0  0  0  0  0  0
    2.8130   -2.4682    0.0000 C   0  0  0  0  0  0  0  0  0  0  0  0
    3.5991   -1.1907    0.0000 C   0  0  0  0  0  0  0  0  0  0  0  0
    5.0985   -1.2327    0.0000 C   0  0  0  0  0  0  0  0  0  0  0  0
    5.8846    0.0448    0.0000 C   0  0  0  0  0  0  0  0  0  0  0  0
    7.3840    0.0028    0.0000 O   0  0  0  0  0  0  0  0  0  0  0  0
    5.1713    1.3643    0.0000 C   0  0  0  0  0  0  0  0  0  0  0  0
    3.6719    1.4063    0.0000 C   0  0  0  0  0  0  0  0  0  0  0  0
    2.8858    0.1288    0.0000 C   0  0  0  0  0  0  0  0  0  0  0  0
    2.1724    1.4484    0.0000 C   0  0  0  0  0  0  0  0  0  0  0  0
    1.3864    0.1708    0.0000 C   0  0  0  0  0  0  0  0  0  0  0  0
   -0.1131    0.2128    0.0000 Cl  0  0  0  0  0  0  0  0  0  0  0  0
    0.6730    1.4904    0.0000 C   0  0  0  0  0  0  0  0  0  0  0  0
    1.4591    2.7679    0.0000 O   0  0  0  0  0  0  0  0  0  0  0  0
   -0.8264    1.5324    0.0000 C   0  0  0  0  0  0  0  0  0  0  0  0
   -1.6125    0.2549    0.0000 C   0  0  0  0  0  0  0  0  0  0  0  0
   -2.3026    1.5867    0.0000 C   0  0  0  0  0  0  0  0  0  0  0  0
   -3.0878   -0.0158    0.0000 C   0  0  0  0  0  0  0  0  0  0  0  0
   -3.3842    1.4546    0.0000 O   0  0  0  0  0  0  0  0  0  0  0  0
   -4.5873    0.0262    0.0000 C   0  0  0  0  0  0  0  0  0  0  0  0
   -5.3734   -1.2513    0.0000 O   0  0  0  0  0  0  0  0  0  0  0  0
   -5.3006    1.3458    0.0000 C   0  0  0  0  0  0  0  0  0  0  0  0
   -6.8000    1.3878    0.0000 Cl  0  0  0  0  0  0  0  0  0  0  0  0
  1  2  1  0
  2  3  1  0
  3  4  1  0
  4  5  1  0
  5  6  1  0
  6  7  1  0
  7  8  1  0
  8  9  2  0
  9 10  1  0
 10 11  2  0
 10 12  1  0
 12 13  2  0
 13 14  1  0
 14 15  1  0
 14 16  1  0
 16 17  1  0
 16 18  1  0
 18 19  1  0
 18 20  1  0
 20 21  1  0
 21 22  1  0
 21 23  1  0
 23 24  1  0
 23 25  1  0
 25 26  2  0
 25 27  1  0
 27 28  1  0
 23  2  1  0
 21  4  1  0
 16  5  1  0
 14  8  1  0
M  END
> <Identifier>
123620.0

> <DILI>
0

$$$$

     RDKit          2D

 33 35  0  0  0  0  0  0  0  0999 V2000
    2.9745   -5.1349    0.0000 C   0  0  0  0  0  0  0  0  0  0  0  0
    3.1217   -3.6422    0.0000 N   0  0  0  0  0  0  0  0  0  0  0  0
    4.4881   -3.0233    0.0000 C   0  0  0  0  0  0  0  0  0  0  0  0
    4.6353   -1.5305    0.0000 C   0  0  0  0  0  0  0  0  0  0  0  0
    6.0017   -0.9117    0.0000 C   0  0  0  0  0  0  0  0  0  0  0  0
    6.1489    0.5811    0.0000 N   0  0  0  0  0  0  0  0  0  0  0  0
    4.9298    1.4550    0.0000 C   0  0  0  0  0  0  0  0  0  0  0  0
    5.0770    2.9477    0.0000 N   0  0  0  0  0  0  0  0  0  0  0  0
    3.8578    3.8216    0.0000 C   0  0  0  0  0  0  0  0  0  0  0  0
    4.0051    5.3144    0.0000 N   0  0  0  0  0  0  0  0  0  0  0  0
    2.4914    3.2027    0.0000 N   0  0  0  0  0  0  0  0  0  0  0  0
    2.3442    1.7100    0.0000 C   0  0  0  0  0  0  0  0  0  0  0  0
    0.9778    1.0911    0.0000 N   0  0  0  0  0  0  0  0  0  0  0  0
    3.5634    0.8361    0.0000 C   0  0  0  0  0  0  0  0  0  0  0  0
    3.4161   -0.6567    0.0000 N   0  0  0  0  0  0  0  0  0  0  0  0
    1.9025   -2.7683    0.0000 C   0  0  0  0  0  0  0  0  0  0  0  0
    2.0498   -1.2755    0.0000 C   0  0  0  0  0  0  0  0  0  0  0  0
    0.8306   -0.4016    0.0000 C   0  0  0  0  0  0  0  0  0  0  0  0
   -0.5358   -1.0205    0.0000 C   0  0  0  0  0  0  0  0  0  0  0  0
   -1.7549   -0.1466    0.0000 C   0  0  0  0  0  0  0  0  0  0  0  0
   -1.6077    1.3461    0.0000 O   0  0  0  0  0  0  0  0  0  0  0  0
   -3.1213   -0.7655    0.0000 N   0  0  0  0  0  0  0  0  0  0  0  0
   -4.3404    0.1084    0.0000 C   0  0  0  0  0  0  0  0  0  0  0  0
   -5.7068   -0.5105    0.0000 C   0  0  0  0  0  0  0  0  0  0  0  0
   -6.9260    0.3634    0.0000 C   0  0  0  0  0  0  0  0  0  0  0  0
   -8.2924   -0.2555    0.0000 C   0  0  0  0  0  0  0  0  0  0  0  0
   -8.4396   -1.7483    0.0000 O   0  0  0  0  0  0  0  0  0  0  0  0
   -9.5115    0.6184    0.0000 O   0  0  0  0  0  0  0  0  0  0  0  0
   -4.1932    1.6011    0.0000 C   0  0  0  0  0  0  0  0  0  0  0  0
   -2.8268    2.2200    0.0000 O   0  0  0  0  0  0  0  0  0  0  0  0
   -5.4124    2.4750    0.0000 O   0  0  0  0  0  0  0  0  0  0  0  0
   -0.6830   -2.5133    0.0000 C   0  0  0  0  0  0  0  0  0  0  0  0
    0.5362   -3.3872    0.0000 C   0  0  0  0  0  0  0  0  0  0  0  0
  1  2  1  0
  2  3  1  0
  3  4  1  0
  4  5  2  0
  5  6  1  0
  6  7  2  0
  7  8  1  0
  8  9  2  0
  9 10  1  0
  9 11  1  0
 11 12  2  0
 12 13  1  0
 12 14  1  0
 14 15  2  0
  2 16  1  0
 16 17  2  0
 17 18  1  0
 18 19  2  0
 19 20  1  0
 20 21  2  0
 20 22  1  0
 22 23  1  0
 23 24  1  0
 24 25  1  0
 25 26  1  0
 26 27  2  0
 26 28  1  0
 23 29  1  0
 29 30  2  0
 29 31  1  0
 19 32  1  0
 32 33  2  0
 15  4  1  0
 33 16  1  0
 14  7  1  0
M  END
> <Identifier>
126941.0

> <DILI>
1

$$$$

     RDKit          2D

 24 26  0  0  0  0  0  0  0  0999 V2000
   -3.8821    4.2090    0.0000 C   0  0  0  0  0  0  0  0  0  0  0  0
   -3.4347    2.7773    0.0000 N   0  0  0  0  0  0  0  0  0  0  0  0
   -4.4509    1.6739    0.0000 C   0  0  0  0  0  0  0  0  0  0  0  0
   -1.9711    2.4489    0.0000 C   0  0  0  0  0  0  0  0  0  0  0  0
   -1.5236    1.0172    0.0000 C   0  0  0  0  0  0  0  0  0  0  0  0
   -0.0600    0.6889    0.0000 C   0  0  0  0  0  0  0  0  0  0  0  0
    0.3874   -0.7428    0.0000 C   0  0  0  0  0  0  0  0  0  0  0  0
   -1.0832   -1.0382    0.0000 C   0  0  0  0  0  0  0  0  0  0  0  0
   -2.0743    0.0878    0.0000 C   0  0  0  0  0  0  0  0  0  0  0  0
   -3.5449   -0.2076    0.0000 C   0  0  0  0  0  0  0  0  0  0  0  0
   -4.0245   -1.6289    0.0000 C   0  0  0  0  0  0  0  0  0  0  0  0
   -5.4951   -1.9242    0.0000 F   0  0  0  0  0  0  0  0  0  0  0  0
   -3.0334   -2.7548    0.0000 C   0  0  0  0  0  0  0  0  0  0  0  0
   -1.5627   -2.4595    0.0000 C   0  0  0  0  0  0  0  0  0  0  0  0
    0.5274   -2.2363    0.0000 O   0  0  0  0  0  0  0  0  0  0  0  0
    1.9911   -2.5647    0.0000 C   0  0  0  0  0  0  0  0  0  0  0  0
    2.7556   -1.2741    0.0000 C   0  0  0  0  0  0  0  0  0  0  0  0
    4.2263   -0.9788    0.0000 C   0  0  0  0  0  0  0  0  0  0  0  0
    4.7058    0.4425    0.0000 C   0  0  0  0  0  0  0  0  0  0  0  0
    6.1764    0.7378    0.0000 C   0  0  0  0  0  0  0  0  0  0  0  0
    7.6471    1.0332    0.0000 N   0  0  0  0  0  0  0  0  0  0  0  0
    3.7147    1.5684    0.0000 C   0  0  0  0  0  0  0  0  0  0  0  0
    2.2441    1.2731    0.0000 C   0  0  0  0  0  0  0  0  0  0  0  0
    1.7645   -0.1482    0.0000 C   0  0  0  0  0  0  0  0  0  0  0  0
  1  2  1  0
  2  3  1  0
  2  4  1  0
  4  5  1  0
  5  6  1  0
  6  7  1  0
  7  8  1  0
  8  9  2  0
  9 10  1  0
 10 11  2  0
 11 12  1  0
 11 13  1  0
 13 14  2  0
  7 15  1  0
 15 16  1  0
 16 17  1  0
 17 18  2  0
 18 19  1  0
 19 20  1  0
 20 21  3  0
 19 22  2  0
 22 23  1  0
 23 24  2  0
 24  7  1  0
 14  8  1  0
 24 17  1  0
M  END
> <Identifier>
146570.0

> <DILI>
0

$$$$

     RDKit          2D

 58 63  0  0  0  0  0  0  0  0999 V2000
    1.4725   -3.0929    0.0000 C   0  0  0  0  0  0  0  0  0  0  0  0
    2.9662   -2.9556    0.0000 C   0  0  0  0  0  0  0  0  0  0  0  0
    3.8319   -4.1806    0.0000 O   0  0  0  0  0  0  0  0  0  0  0  0
    3.5942   -1.5934    0.0000 O   0  0  0  0  0  0  0  0  0  0  0  0
    5.0879   -1.4562    0.0000 C   0  0  0  0  0  0  0  0  0  0  0  0
    4.8339   -2.9345    0.0000 C   0  0  0  0  0  0  0  0  0  0  0  0
    6.3122   -3.1885    0.0000 O   0  0  0  0  0  0  0  0  0  0  0  0
    6.5662   -1.7102    0.0000 C   0  0  0  0  0  0  0  0  0  0  0  0
    7.5254   -0.5569    0.0000 C   0  0  0  0  0  0  0  0  0  0  0  0
    7.0062    0.8504    0.0000 C   0  0  0  0  0  0  0  0  0  0  0  0
    7.9653    2.0037    0.0000 O   0  0  0  0  0  0  0  0  0  0  0  0
    5.5279    1.1044    0.0000 C   0  0  0  0  0  0  0  0  0  0  0  0
    6.6293    2.1226    0.0000 C   0  0  0  0  0  0  0  0  0  0  0  0
    5.3906    2.5981    0.0000 C   0  0  0  0  0  0  0  0  0  0  0  0
    6.7181    3.2965    0.0000 O   0  0  0  0  0  0  0  0  0  0  0  0
    4.2373    3.5573    0.0000 C   0  0  0  0  0  0  0  0  0  0  0  0
    4.6821    4.9898    0.0000 O   0  0  0  0  0  0  0  0  0  0  0  0
    2.7436    3.4200    0.0000 C   0  0  0  0  0  0  0  0  0  0  0  0
    1.2596    3.6990    0.0000 C   0  0  0  0  0  0  0  0  0  0  0  0
    0.9285    5.1620    0.0000 C   0  0  0  0  0  0  0  0  0  0  0  0
    0.1581    2.6808    0.0000 C   0  0  0  0  0  0  0  0  0  0  0  0
   -1.2744    3.1256    0.0000 O   0  0  0  0  0  0  0  0  0  0  0  0
   -2.3759    2.1074    0.0000 C   0  0  0  0  0  0  0  0  0  0  0  0
   -2.0448    0.6444    0.0000 O   0  0  0  0  0  0  0  0  0  0  0  0
   -3.8084    2.5522    0.0000 C   0  0  0  0  0  0  0  0  0  0  0  0
   -4.1395    4.0152    0.0000 O   0  0  0  0  0  0  0  0  0  0  0  0
   -4.9099    1.5340    0.0000 C   0  0  0  0  0  0  0  0  0  0  0  0
   -4.5788    0.0710    0.0000 N   0  0  0  0  0  0  0  0  0  0  0  0
   -5.6803   -0.9472    0.0000 C   0  0  0  0  0  0  0  0  0  0  0  0
   -7.1128   -0.5024    0.0000 O   0  0  0  0  0  0  0  0  0  0  0  0
   -5.3492   -2.4103    0.0000 O   0  0  0  0  0  0  0  0  0  0  0  0
   -6.4507   -3.4285    0.0000 C   0  0  0  0  0  0  0  0  0  0  0  0
   -5.4325   -4.5299    0.0000 C   0  0  0  0  0  0  0  0  0  0  0  0
   -7.4689   -2.3270    0.0000 C   0  0  0  0  0  0  0  0  0  0  0  0
   -7.5522   -4.4467    0.0000 C   0  0  0  0  0  0  0  0  0  0  0  0
   -6.3424    1.9788    0.0000 C   0  0  0  0  0  0  0  0  0  0  0  0
   -6.6735    3.4418    0.0000 C   0  0  0  0  0  0  0  0  0  0  0  0
   -8.1060    3.8866    0.0000 C   0  0  0  0  0  0  0  0  0  0  0  0
   -9.2075    2.8684    0.0000 C   0  0  0  0  0  0  0  0  0  0  0  0
   -8.8764    1.4054    0.0000 C   0  0  0  0  0  0  0  0  0  0  0  0
   -7.4439    0.9606    0.0000 C   0  0  0  0  0  0  0  0  0  0  0  0
    0.4892    1.2178    0.0000 C   0  0  0  0  0  0  0  0  0  0  0  0
    1.9217    0.7730    0.0000 C   0  0  0  0  0  0  0  0  0  0  0  0
    0.5943    0.0746    0.0000 O   0  0  0  0  0  0  0  0  0  0  0  0
    3.0750   -0.1861    0.0000 C   0  0  0  0  0  0  0  0  0  0  0  0
    2.6302   -1.6187    0.0000 O   0  0  0  0  0  0  0  0  0  0  0  0
    1.1672   -1.9497    0.0000 C   0  0  0  0  0  0  0  0  0  0  0  0
    0.1490   -0.8483    0.0000 O   0  0  0  0  0  0  0  0  0  0  0  0
    0.7224   -3.3823    0.0000 C   0  0  0  0  0  0  0  0  0  0  0  0
   -0.7406   -3.7133    0.0000 C   0  0  0  0  0  0  0  0  0  0  0  0
   -1.1854   -5.1459    0.0000 C   0  0  0  0  0  0  0  0  0  0  0  0
   -0.1672   -6.2473    0.0000 C   0  0  0  0  0  0  0  0  0  0  0  0
    1.2958   -5.9163    0.0000 C   0  0  0  0  0  0  0  0  0  0  0  0
    1.7406   -4.4837    0.0000 C   0  0  0  0  0  0  0  0  0  0  0  0
    4.5687   -0.0489    0.0000 C   0  0  0  0  0  0  0  0  0  0  0  0
    1.7845    2.2667    0.0000 C   0  0  0  0  0  0  0  0  0  0  0  0
    0.6975    2.1477    0.0000 C   0  0  0  0  0  0  0  0  0  0  0  0
    0.6481    3.2458    0.0000 C   0  0  0  0  0  0  0  0  0  0  0  0
  1  2  1  0
  2  3  2  0
  2  4  1  0
  4  5  1  0
  5  6  1  0
  6  7  1  0
  7  8  1  0
  8  9  1  0
  9 10  1  0
 10 11  1  0
 10 12  1  0
 12 13  1  0
 12 14  1  0
 14 15  2  0
 14 16  1  0
 16 17  1  0
 16 18  1  0
 18 19  2  0
 19 20  1  0
 19 21  1  0
 21 22  1  0
 22 23  1  0
 23 24  2  0
 23 25  1  0
 25 26  1  0
 25 27  1  0
 27 28  1  0
 28 29  1  0
 29 30  2  0
 29 31  1  0
 31 32  1  0
 32 33  1  0
 32 34  1  0
 32 35  1  0
 27 36  1  0
 36 37  2  0
 37 38  1  0
 38 39  2  0
 39 40  1  0
 40 41  2  0
 21 42  1  0
 42 43  1  0
 43 44  1  0
 43 45  1  0
 45 46  1  0
 46 47  1  0
 47 48  2  0
 47 49  1  0
 49 50  2  0
 50 51  1  0
 51 52  2  0
 52 53  1  0
 53 54  2  0
 45 55  1  0
 43 56  1  0
 56 57  1  0
 56 58  1  0
  8  5  1  0
 55 12  1  0
 55  5  1  0
 56 18  1  0
 41 36  1  0
 54 49  1  0
M  END
> <Identifier>
148124.0

> <DILI>
1

$$$$

     RDKit          2D

 26 29  0  0  0  0  0  0  0  0999 V2000
    2.3542   -4.0070    0.0000 C   0  0  0  0  0  0  0  0  0  0  0  0
    1.3957   -2.8531    0.0000 C   0  0  0  0  0  0  0  0  0  0  0  0
   -0.0828   -3.1063    0.0000 C   0  0  0  0  0  0  0  0  0  0  0  0
   -1.0412   -1.9524    0.0000 O   0  0  0  0  0  0  0  0  0  0  0  0
   -0.5212   -0.5454    0.0000 C   0  0  0  0  0  0  0  0  0  0  0  0
   -1.4797    0.6084    0.0000 C   0  0  0  0  0  0  0  0  0  0  0  0
   -2.9581    0.3553    0.0000 N   0  0  0  0  0  0  0  0  0  0  0  0
   -3.9166    1.5091    0.0000 C   0  0  0  0  0  0  0  0  0  0  0  0
   -5.3951    1.2560    0.0000 C   0  0  0  0  0  0  0  0  0  0  0  0
   -5.9151   -0.1510    0.0000 N   0  0  0  0  0  0  0  0  0  0  0  0
   -7.3936   -0.4041    0.0000 C   0  0  0  0  0  0  0  0  0  0  0  0
   -4.9567   -1.3048    0.0000 C   0  0  0  0  0  0  0  0  0  0  0  0
   -3.4782   -1.0517    0.0000 C   0  0  0  0  0  0  0  0  0  0  0  0
   -0.9596    2.0154    0.0000 C   0  0  0  0  0  0  0  0  0  0  0  0
   -1.9181    3.1692    0.0000 F   0  0  0  0  0  0  0  0  0  0  0  0
    0.5189    2.2685    0.0000 C   0  0  0  0  0  0  0  0  0  0  0  0
    1.4773    1.1146    0.0000 C   0  0  0  0  0  0  0  0  0  0  0  0
    2.9558    1.3678    0.0000 C   0  0  0  0  0  0  0  0  0  0  0  0
    3.4758    2.7747    0.0000 O   0  0  0  0  0  0  0  0  0  0  0  0
    3.9143    0.2139    0.0000 C   0  0  0  0  0  0  0  0  0  0  0  0
    5.3928    0.4670    0.0000 C   0  0  0  0  0  0  0  0  0  0  0  0
    5.9128    1.8740    0.0000 O   0  0  0  0  0  0  0  0  0  0  0  0
    6.3512   -0.6868    0.0000 O   0  0  0  0  0  0  0  0  0  0  0  0
    3.3942   -1.1930    0.0000 C   0  0  0  0  0  0  0  0  0  0  0  0
    1.9157   -1.4462    0.0000 N   0  0  0  0  0  0  0  0  0  0  0  0
    0.9573   -0.2923    0.0000 C   0  0  0  0  0  0  0  0  0  0  0  0
  1  2  1  0
  2  3  1  0
  3  4  1  0
  4  5  1  0
  5  6  1  0
  6  7  1  0
  7  8  1  0
  8  9  1  0
  9 10  1  0
 10 11  1  0
 10 12  1  0
 12 13  1  0
  6 14  2  0
 14 15  1  0
 14 16  1  0
 16 17  2  0
 17 18  1  0
 18 19  2  0
 18 20  1  0
 20 21  1  0
 21 22  2  0
 21 23  1  0
 20 24  2  0
 24 25  1  0
 25 26  1  0
 25  2  1  0
 26  5  2  0
 13  7  1  0
 26 17  1  0
M  END
> <Identifier>
149096.0

> <DILI>
1

$$$$

     RDKit          2D

 25 25  0  0  0  0  0  0  0  0999 V2000
    3.5045   -7.5385    0.0000 C   0  0  0  0  0  0  0  0  0  0  0  0
    4.0904   -6.1577    0.0000 C   0  0  0  0  0  0  0  0  0  0  0  0
    3.1875   -4.9598    0.0000 C   0  0  0  0  0  0  0  0  0  0  0  0
    3.7734   -3.5790    0.0000 C   0  0  0  0  0  0  0  0  0  0  0  0
    2.8705   -2.3812    0.0000 C   0  0  0  0  0  0  0  0  0  0  0  0
    3.4565   -1.0003    0.0000 C   0  0  0  0  0  0  0  0  0  0  0  0
    4.9453   -0.8173    0.0000 O   0  0  0  0  0  0  0  0  0  0  0  0
    2.5536    0.1975    0.0000 C   0  0  0  0  0  0  0  0  0  0  0  0
    3.1395    1.5783    0.0000 C   0  0  0  0  0  0  0  0  0  0  0  0
    2.2366    2.7762    0.0000 C   0  0  0  0  0  0  0  0  0  0  0  0
    2.6750    4.2107    0.0000 C   0  0  0  0  0  0  0  0  0  0  0  0
    4.0932    4.6992    0.0000 O   0  0  0  0  0  0  0  0  0  0  0  0
    1.4462    5.0709    0.0000 C   0  0  0  0  0  0  0  0  0  0  0  0
    0.2483    4.1680    0.0000 C   0  0  0  0  0  0  0  0  0  0  0  0
   -1.1862    4.6064    0.0000 O   0  0  0  0  0  0  0  0  0  0  0  0
    0.7369    2.7498    0.0000 C   0  0  0  0  0  0  0  0  0  0  0  0
   -0.1234    1.5210    0.0000 C   0  0  0  0  0  0  0  0  0  0  0  0
   -1.6177    1.6515    0.0000 C   0  0  0  0  0  0  0  0  0  0  0  0
   -2.4779    0.4227    0.0000 C   0  0  0  0  0  0  0  0  0  0  0  0
   -3.9722    0.5532    0.0000 C   0  0  0  0  0  0  0  0  0  0  0  0
   -4.8324   -0.6756    0.0000 C   0  0  0  0  0  0  0  0  0  0  0  0
   -6.3267   -0.5451    0.0000 C   0  0  0  0  0  0  0  0  0  0  0  0
   -7.1869   -1.7739    0.0000 C   0  0  0  0  0  0  0  0  0  0  0  0
   -6.5528   -3.1333    0.0000 O   0  0  0  0  0  0  0  0  0  0  0  0
   -8.6812   -1.6434    0.0000 O   0  0  0  0  0  0  0  0  0  0  0  0
  1  2  1  0
  2  3  1  0
  3  4  1  0
  4  5  1  0
  5  6  1  0
  6  7  1  0
  6  8  1  0
  8  9  2  3
  9 10  1  0
 10 11  1  0
 11 12  1  0
 11 13  1  0
 13 14  1  0
 14 15  2  0
 14 16  1  0
 16 17  1  0
 17 18  1  0
 18 19  1  0
 19 20  1  0
 20 21  1  0
 21 22  1  0
 22 23  1  0
 23 24  2  0
 23 25  1  0
 16 10  1  0
M  END
> <Identifier>
149351.0

> <DILI>
0

$$$$

     RDKit          2D

 20 21  0  0  0  0  0  0  0  0999 V2000
    3.5684   -3.3240    0.0000 C   0  0  0  0  0  0  0  0  0  0  0  0
    2.4985   -2.2727    0.0000 C   0  0  0  0  0  0  0  0  0  0  0  0
    1.0530   -2.6737    0.0000 C   0  0  0  0  0  0  0  0  0  0  0  0
   -0.0169   -1.6224    0.0000 C   0  0  0  0  0  0  0  0  0  0  0  0
    0.3585   -0.1702    0.0000 C   0  0  0  0  0  0  0  0  0  0  0  0
   -0.7114    0.8811    0.0000 N   0  0  0  0  0  0  0  0  0  0  0  0
   -2.1568    0.4801    0.0000 C   0  0  0  0  0  0  0  0  0  0  0  0
   -3.2268    1.5314    0.0000 C   0  0  0  0  0  0  0  0  0  0  0  0
   -2.8513    2.9837    0.0000 F   0  0  0  0  0  0  0  0  0  0  0  0
   -4.6722    1.1305    0.0000 C   0  0  0  0  0  0  0  0  0  0  0  0
   -5.0477   -0.3218    0.0000 C   0  0  0  0  0  0  0  0  0  0  0  0
   -3.9777   -1.3731    0.0000 C   0  0  0  0  0  0  0  0  0  0  0  0
   -2.5323   -0.9721    0.0000 C   0  0  0  0  0  0  0  0  0  0  0  0
   -1.4623   -2.0234    0.0000 Cl  0  0  0  0  0  0  0  0  0  0  0  0
    1.8039    0.2308    0.0000 C   0  0  0  0  0  0  0  0  0  0  0  0
    2.1794    1.6831    0.0000 C   0  0  0  0  0  0  0  0  0  0  0  0
    3.6248    2.0840    0.0000 C   0  0  0  0  0  0  0  0  0  0  0  0
    4.6948    1.0328    0.0000 O   0  0  0  0  0  0  0  0  0  0  0  0
    4.0003    3.5363    0.0000 O   0  0  0  0  0  0  0  0  0  0  0  0
    2.8739   -0.8205    0.0000 C   0  0  0  0  0  0  0  0  0  0  0  0
  1  2  1  0
  2  3  2  0
  3  4  1  0
  4  5  2  0
  5  6  1  0
  6  7  1  0
  7  8  2  0
  8  9  1  0
  8 10  1  0
 10 11  2  0
 11 12  1  0
 12 13  2  0
 13 14  1  0
  5 15  1  0
 15 16  1  0
 16 17  1  0
 17 18  2  0
 17 19  1  0
 15 20  2  0
 20  2  1  0
 13  7  1  0
M  END
> <Identifier>
151166.0

> <DILI>
1

$$$$

     RDKit          2D

 29 33  0  0  0  0  0  0  0  0999 V2000
    0.4328   -2.9368    0.0000 C   0  0  0  0  0  0  0  0  0  0  0  0
   -0.5094   -1.7697    0.0000 O   0  0  0  0  0  0  0  0  0  0  0  0
    0.0303   -0.3701    0.0000 C   0  0  0  0  0  0  0  0  0  0  0  0
   -0.9118    0.7971    0.0000 C   0  0  0  0  0  0  0  0  0  0  0  0
   -2.3937    0.5647    0.0000 N   0  0  0  0  0  0  0  0  0  0  0  0
   -3.4528    1.6270    0.0000 C   0  0  0  0  0  0  0  0  0  0  0  0
   -4.7903    0.9481    0.0000 C   0  0  0  0  0  0  0  0  0  0  0  0
   -6.1899    1.4878    0.0000 C   0  0  0  0  0  0  0  0  0  0  0  0
   -7.3570    0.5456    0.0000 C   0  0  0  0  0  0  0  0  0  0  0  0
   -7.1247   -0.9363    0.0000 C   0  0  0  0  0  0  0  0  0  0  0  0
   -5.7251   -1.4760    0.0000 N   0  0  0  0  0  0  0  0  0  0  0  0
   -4.5580   -0.5338    0.0000 C   0  0  0  0  0  0  0  0  0  0  0  0
   -3.0768   -0.7708    0.0000 C   0  0  0  0  0  0  0  0  0  0  0  0
   -0.3721    2.1966    0.0000 C   0  0  0  0  0  0  0  0  0  0  0  0
   -1.3143    3.3638    0.0000 F   0  0  0  0  0  0  0  0  0  0  0  0
    1.1098    2.4289    0.0000 C   0  0  0  0  0  0  0  0  0  0  0  0
    2.0519    1.2618    0.0000 C   0  0  0  0  0  0  0  0  0  0  0  0
    3.5338    1.4941    0.0000 C   0  0  0  0  0  0  0  0  0  0  0  0
    4.0736    2.8937    0.0000 O   0  0  0  0  0  0  0  0  0  0  0  0
    4.4760    0.3269    0.0000 C   0  0  0  0  0  0  0  0  0  0  0  0
    5.9579    0.5593    0.0000 C   0  0  0  0  0  0  0  0  0  0  0  0
    6.4976    1.9588    0.0000 O   0  0  0  0  0  0  0  0  0  0  0  0
    6.9001   -0.6079    0.0000 O   0  0  0  0  0  0  0  0  0  0  0  0
    3.9363   -1.0726    0.0000 C   0  0  0  0  0  0  0  0  0  0  0  0
    2.4544   -1.3050    0.0000 N   0  0  0  0  0  0  0  0  0  0  0  0
    1.9147   -2.7045    0.0000 C   0  0  0  0  0  0  0  0  0  0  0  0
    2.1470   -4.1864    0.0000 C   0  0  0  0  0  0  0  0  0  0  0  0
    0.7475   -3.6467    0.0000 C   0  0  0  0  0  0  0  0  0  0  0  0
    1.5122   -0.1378    0.0000 C   0  0  0  0  0  0  0  0  0  0  0  0
  1  2  1  0
  2  3  1  0
  3  4  2  0
  4  5  1  0
  5  6  1  0
  6  7  1  0
  7  8  1  0
  8  9  1  0
  9 10  1  0
 10 11  1  0
 11 12  1  0
 12 13  1  0
  4 14  1  0
 14 15  1  0
 14 16  2  0
 16 17  1  0
 17 18  1  0
 18 19  2  0
 18 20  1  0
 20 21  1  0
 21 22  2  0
 21 23  1  0
 20 24  2  0
 24 25  1  0
 25 26  1  0
 26 27  1  0
 27 28  1  0
 25 29  1  0
 29  3  1  0
 13  5  1  0
 29 17  2  0
 12  7  1  0
 28 26  1  0
M  END
> <Identifier>
152946.0

> <DILI>
1

$$$$

     RDKit          2D

 38 42  0  0  0  0  0  0  0  0999 V2000
   -0.1267   -3.2231    0.0000 C   0  0  0  0  0  0  0  0  0  0  0  0
    1.3393   -3.5410    0.0000 C   0  0  0  0  0  0  0  0  0  0  0  0
    2.3475   -2.4304    0.0000 O   0  0  0  0  0  0  0  0  0  0  0  0
    3.8134   -2.7482    0.0000 C   0  0  0  0  0  0  0  0  0  0  0  0
    4.4180   -4.1210    0.0000 O   0  0  0  0  0  0  0  0  0  0  0  0
    5.9104   -3.9703    0.0000 C   0  0  0  0  0  0  0  0  0  0  0  0
    6.9095   -5.0891    0.0000 O   0  0  0  0  0  0  0  0  0  0  0  0
    6.2282   -2.5044    0.0000 C   0  0  0  0  0  0  0  0  0  0  0  0
    4.9323   -1.7491    0.0000 C   0  0  0  0  0  0  0  0  0  0  0  0
    4.7816   -0.2567    0.0000 N   0  0  0  0  0  0  0  0  0  0  0  0
    3.4137    0.3590    0.0000 C   0  0  0  0  0  0  0  0  0  0  0  0
    2.1966   -0.5177    0.0000 O   0  0  0  0  0  0  0  0  0  0  0  0
    3.2630    1.8514    0.0000 C   0  0  0  0  0  0  0  0  0  0  0  0
    4.4802    2.7281    0.0000 C   0  0  0  0  0  0  0  0  0  0  0  0
    4.3295    4.2206    0.0000 C   0  0  0  0  0  0  0  0  0  0  0  0
    2.9616    4.8363    0.0000 C   0  0  0  0  0  0  0  0  0  0  0  0
    1.7445    3.9595    0.0000 N   0  0  0  0  0  0  0  0  0  0  0  0
    0.4838    4.7722    0.0000 C   0  0  0  0  0  0  0  0  0  0  0  0
    0.6689    6.2607    0.0000 O   0  0  0  0  0  0  0  0  0  0  0  0
   -0.9377    4.2932    0.0000 C   0  0  0  0  0  0  0  0  0  0  0  0
   -1.4495    2.8832    0.0000 C   0  0  0  0  0  0  0  0  0  0  0  0
   -0.6662    1.6040    0.0000 C   0  0  0  0  0  0  0  0  0  0  0  0
   -1.4788    0.3432    0.0000 N   0  0  0  0  0  0  0  0  0  0  0  0
   -2.9770    0.4166    0.0000 C   0  0  0  0  0  0  0  0  0  0  0  0
   -3.6626    1.7508    0.0000 O   0  0  0  0  0  0  0  0  0  0  0  0
   -3.7897   -0.8442    0.0000 C   0  0  0  0  0  0  0  0  0  0  0  0
   -3.1042   -2.1783    0.0000 N   0  0  0  0  0  0  0  0  0  0  0  0
   -3.9169   -3.4391    0.0000 C   0  0  0  0  0  0  0  0  0  0  0  0
   -5.4151   -3.3657    0.0000 C   0  0  0  0  0  0  0  0  0  0  0  0
   -6.1006   -2.0315    0.0000 C   0  0  0  0  0  0  0  0  0  0  0  0
   -7.5988   -1.9581    0.0000 C   0  0  0  0  0  0  0  0  0  0  0  0
   -8.2843   -0.6239    0.0000 C   0  0  0  0  0  0  0  0  0  0  0  0
   -7.4716    0.6369    0.0000 C   0  0  0  0  0  0  0  0  0  0  0  0
   -5.9734    0.5635    0.0000 C   0  0  0  0  0  0  0  0  0  0  0  0
   -5.2879   -0.7707    0.0000 C   0  0  0  0  0  0  0  0  0  0  0  0
    0.8224    1.4188    0.0000 C   0  0  0  0  0  0  0  0  0  0  0  0
    1.3014   -0.0027    0.0000 O   0  0  0  0  0  0  0  0  0  0  0  0
    1.8952    2.4671    0.0000 N   0  0  0  0  0  0  0  0  0  0  0  0
  1  2  1  0
  2  3  1  0
  3  4  1  0
  4  5  1  0
  5  6  1  0
  6  7  2  0
  6  8  1  0
  8  9  1  0
  9 10  1  0
 10 11  1  0
 11 12  2  0
 11 13  1  0
 13 14  1  0
 14 15  1  0
 15 16  1  0
 16 17  1  0
 17 18  1  0
 18 19  2  0
 18 20  1  0
 20 21  1  0
 21 22  1  0
 22 23  1  0
 23 24  1  0
 24 25  2  0
 24 26  1  0
 26 27  2  0
 27 28  1  0
 28 29  2  0
 29 30  1  0
 30 31  2  0
 31 32  1  0
 32 33  2  0
 33 34  1  0
 34 35  2  0
 22 36  1  0
 36 37  2  0
 36 38  1  0
  9  4  1  0
 38 13  1  0
 38 17  1  0
 35 26  1  0
 35 30  1  0
M  END
> <Identifier>
153270.0

> <DILI>
1

$$$$

     RDKit          2D

 20 22  0  0  0  0  0  0  0  0999 V2000
    2.5114   -2.6044    0.0000 C   0  0  0  0  0  0  0  0  0  0  0  0
    2.4171   -1.1074    0.0000 C   0  0  0  0  0  0  0  0  0  0  0  0
    3.5727   -0.1511    0.0000 C   0  0  0  0  0  0  0  0  0  0  0  0
    5.0257   -0.5240    0.0000 C   0  0  0  0  0  0  0  0  0  0  0  0
    6.0751    0.5478    0.0000 O   0  0  0  0  0  0  0  0  0  0  0  0
    3.0204    1.2435    0.0000 C   0  0  0  0  0  0  0  0  0  0  0  0
    3.8241    2.5101    0.0000 O   0  0  0  0  0  0  0  0  0  0  0  0
    1.5234    1.1492    0.0000 C   0  0  0  0  0  0  0  0  0  0  0  0
    1.1505   -0.3037    0.0000 C   0  0  0  0  0  0  0  0  0  0  0  0
   -0.2441   -0.8560    0.0000 N   0  0  0  0  0  0  0  0  0  0  0  0
   -0.6170   -2.3089    0.0000 C   0  0  0  0  0  0  0  0  0  0  0  0
   -2.1141   -2.4032    0.0000 N   0  0  0  0  0  0  0  0  0  0  0  0
   -2.6664   -1.0086    0.0000 C   0  0  0  0  0  0  0  0  0  0  0  0
   -4.0723   -0.4859    0.0000 C   0  0  0  0  0  0  0  0  0  0  0  0
   -5.2280   -1.4421    0.0000 O   0  0  0  0  0  0  0  0  0  0  0  0
   -4.3226    0.9931    0.0000 N   0  0  0  0  0  0  0  0  0  0  0  0
   -3.1669    1.9493    0.0000 C   0  0  0  0  0  0  0  0  0  0  0  0
   -3.4172    3.4283    0.0000 N   0  0  0  0  0  0  0  0  0  0  0  0
   -1.7610    1.4266    0.0000 N   0  0  0  0  0  0  0  0  0  0  0  0
   -1.5107   -0.0524    0.0000 C   0  0  0  0  0  0  0  0  0  0  0  0
  1  2  2  0
  2  3  1  0
  3  4  1  0
  4  5  1  0
  3  6  1  0
  6  7  1  0
  6  8  1  0
  8  9  1  0
  9 10  1  0
 10 11  1  0
 11 12  2  0
 12 13  1  0
 13 14  1  0
 14 15  2  0
 14 16  1  0
 16 17  2  0
 17 18  1  0
 17 19  1  0
 19 20  1  0
  9  2  1  0
 20 10  1  0
 20 13  2  0
M  END
> <Identifier>
153941.0

> <DILI>
1

$$$$

     RDKit          2D

 42 45  0  0  0  0  0  0  0  0999 V2000
    5.9453    3.1697    0.0000 N   0  0  0  0  0  0  0  0  0  0  0  0
    7.2035    2.3531    0.0000 C   0  0  0  0  0  0  0  0  0  0  0  0
    7.1255    0.8551    0.0000 C   0  0  0  0  0  0  0  0  0  0  0  0
    5.7892    0.1737    0.0000 O   0  0  0  0  0  0  0  0  0  0  0  0
    5.7111   -1.3242    0.0000 C   0  0  0  0  0  0  0  0  0  0  0  0
    4.3748   -2.0056    0.0000 O   0  0  0  0  0  0  0  0  0  0  0  0
    3.1166   -1.1890    0.0000 C   0  0  0  0  0  0  0  0  0  0  0  0
    3.0376    0.3089    0.0000 C   0  0  0  0  0  0  0  0  0  0  0  0
    4.2031    1.2532    0.0000 C   0  0  0  0  0  0  0  0  0  0  0  0
    3.9680    2.7347    0.0000 O   0  0  0  0  0  0  0  0  0  0  0  0
    1.5886    0.6967    0.0000 O   0  0  0  0  0  0  0  0  0  0  0  0
    0.7720   -0.5616    0.0000 C   0  0  0  0  0  0  0  0  0  0  0  0
   -0.7259   -0.6405    0.0000 O   0  0  0  0  0  0  0  0  0  0  0  0
   -1.5432    0.6172    0.0000 C   0  0  0  0  0  0  0  0  0  0  0  0
   -0.8626    1.9539    0.0000 C   0  0  0  0  0  0  0  0  0  0  0  0
    0.6353    2.0329    0.0000 O   0  0  0  0  0  0  0  0  0  0  0  0
   -1.6800    3.2117    0.0000 C   0  0  0  0  0  0  0  0  0  0  0  0
   -0.9994    4.5484    0.0000 N   0  0  0  0  0  0  0  0  0  0  0  0
   -3.1779    3.1328    0.0000 C   0  0  0  0  0  0  0  0  0  0  0  0
   -3.8585    1.7960    0.0000 C   0  0  0  0  0  0  0  0  0  0  0  0
   -5.3564    1.7171    0.0000 N   0  0  0  0  0  0  0  0  0  0  0  0
   -3.0411    0.5383    0.0000 C   0  0  0  0  0  0  0  0  0  0  0  0
   -3.7217   -0.7984    0.0000 O   0  0  0  0  0  0  0  0  0  0  0  0
   -5.2196   -0.8774    0.0000 C   0  0  0  0  0  0  0  0  0  0  0  0
   -6.0370    0.3804    0.0000 O   0  0  0  0  0  0  0  0  0  0  0  0
   -7.5349    0.3014    0.0000 C   0  0  0  0  0  0  0  0  0  0  0  0
   -8.3522    1.5592    0.0000 C   0  0  0  0  0  0  0  0  0  0  0  0
   -9.8502    1.4802    0.0000 O   0  0  0  0  0  0  0  0  0  0  0  0
   -8.2155   -1.0353    0.0000 C   0  0  0  0  0  0  0  0  0  0  0  0
   -9.7134   -1.1143    0.0000 O   0  0  0  0  0  0  0  0  0  0  0  0
   -7.3982   -2.2931    0.0000 C   0  0  0  0  0  0  0  0  0  0  0  0
   -8.0787   -3.6298    0.0000 O   0  0  0  0  0  0  0  0  0  0  0  0
   -5.9002   -2.2141    0.0000 C   0  0  0  0  0  0  0  0  0  0  0  0
   -5.0829   -3.4719    0.0000 N   0  0  0  0  0  0  0  0  0  0  0  0
    1.7164   -1.7270    0.0000 C   0  0  0  0  0  0  0  0  0  0  0  0
    1.3286   -3.1760    0.0000 O   0  0  0  0  0  0  0  0  0  0  0  0
    6.9694   -2.1408    0.0000 C   0  0  0  0  0  0  0  0  0  0  0  0
    6.8913   -3.6388    0.0000 N   0  0  0  0  0  0  0  0  0  0  0  0
    8.3057   -1.4594    0.0000 C   0  0  0  0  0  0  0  0  0  0  0  0
    9.5639   -2.2760    0.0000 O   0  0  0  0  0  0  0  0  0  0  0  0
    8.3837    0.0386    0.0000 C   0  0  0  0  0  0  0  0  0  0  0  0
    9.7200    0.7199    0.0000 O   0  0  0  0  0  0  0  0  0  0  0  0
  1  2  1  0
  2  3  1  0
  3  4  1  0
  4  5  1  0
  5  6  1  0
  6  7  1  0
  7  8  1  0
  8  9  1  0
  9 10  1  0
  8 11  1  0
 11 12  1  0
 12 13  1  0
 13 14  1  0
 14 15  1  0
 15 16  1  0
 15 17  1  0
 17 18  1  0
 17 19  1  0
 19 20  1  0
 20 21  1  0
 20 22  1  0
 22 23  1  0
 23 24  1  0
 24 25  1  0
 25 26  1  0
 26 27  1  0
 27 28  1  0
 26 29  1  0
 29 30  1  0
 29 31  1  0
 31 32  1  0
 31 33  1  0
 33 34  1  0
 12 35  1  0
 35 36  1  0
  5 37  1  0
 37 38  1  0
 37 39  1  0
 39 40  1  0
 39 41  1  0
 41 42  1  0
 41  3  1  0
 35  7  1  0
 22 14  1  0
 33 24  1  0
M  END
> <Identifier>
165580.0

> <DILI>
0

$$$$

     RDKit          2D

 16 17  0  0  0  0  0  0  0  0999 V2000
   -5.6891   -0.8966    0.0000 O   0  0  0  0  0  0  0  0  0  0  0  0
   -5.0803    0.4743    0.0000 C   0  0  0  0  0  0  0  0  0  0  0  0
   -5.9632    1.6870    0.0000 O   0  0  0  0  0  0  0  0  0  0  0  0
   -3.5887    0.6325    0.0000 C   0  0  0  0  0  0  0  0  0  0  0  0
   -2.7059   -0.5801    0.0000 C   0  0  0  0  0  0  0  0  0  0  0  0
   -1.2142   -0.4219    0.0000 C   0  0  0  0  0  0  0  0  0  0  0  0
   -0.3314   -1.6346    0.0000 C   0  0  0  0  0  0  0  0  0  0  0  0
    1.1602   -1.4764    0.0000 C   0  0  0  0  0  0  0  0  0  0  0  0
    2.1650   -2.5901    0.0000 S   0  0  0  0  0  0  0  0  0  0  0  0
    3.5347   -1.9787    0.0000 C   0  0  0  0  0  0  0  0  0  0  0  0
    3.3765   -0.4870    0.0000 C   0  0  0  0  0  0  0  0  0  0  0  0
    4.1253    0.8127    0.0000 N   0  0  0  0  0  0  0  0  0  0  0  0
    3.1205    1.9265    0.0000 C   0  0  0  0  0  0  0  0  0  0  0  0
    3.4309    3.3940    0.0000 O   0  0  0  0  0  0  0  0  0  0  0  0
    1.7508    1.3150    0.0000 N   0  0  0  0  0  0  0  0  0  0  0  0
    1.9090   -0.1766    0.0000 C   0  0  0  0  0  0  0  0  0  0  0  0
  1  2  2  0
  2  3  1  0
  2  4  1  0
  4  5  1  0
  5  6  1  0
  6  7  1  0
  7  8  1  0
  8  9  1  0
  9 10  1  0
 10 11  1  0
 11 12  1  0
 12 13  1  0
 13 14  2  0
 13 15  1  0
 15 16  1  0
 16  8  1  0
 16 11  1  0
M  END
> <Identifier>
171548.0

> <DILI>
0

$$$$

     RDKit          2D

 21 23  0  0  0  0  0  0  0  0999 V2000
    2.7537   -0.5082    0.0000 C   0  0  0  0  0  0  0  0  0  0  0  0
    3.3772   -0.0116    0.0000 N   0  0  0  0  0  0  0  0  0  0  0  0
    4.6832   -0.7495    0.0000 C   0  0  0  0  0  0  0  0  0  0  0  0
    5.7885    0.2645    0.0000 C   0  0  0  0  0  0  0  0  0  0  0  0
    5.1657    1.6291    0.0000 C   0  0  0  0  0  0  0  0  0  0  0  0
    3.6754    1.4585    0.0000 C   0  0  0  0  0  0  0  0  0  0  0  0
    2.2398    0.9912    0.0000 C   0  0  0  0  0  0  0  0  0  0  0  0
    2.0969   -0.5019    0.0000 C   0  0  0  0  0  0  0  0  0  0  0  0
    0.7323   -1.1247    0.0000 O   0  0  0  0  0  0  0  0  0  0  0  0
   -0.4893   -0.2544    0.0000 C   0  0  0  0  0  0  0  0  0  0  0  0
   -0.3464    1.2388    0.0000 O   0  0  0  0  0  0  0  0  0  0  0  0
   -1.8539   -0.8772    0.0000 C   0  0  0  0  0  0  0  0  0  0  0  0
   -1.9968   -2.3704    0.0000 C   0  0  0  0  0  0  0  0  0  0  0  0
   -3.3614   -2.9932    0.0000 O   0  0  0  0  0  0  0  0  0  0  0  0
   -3.0756   -0.0068    0.0000 C   0  0  0  0  0  0  0  0  0  0  0  0
   -2.9327    1.4863    0.0000 C   0  0  0  0  0  0  0  0  0  0  0  0
   -4.1543    2.3567    0.0000 C   0  0  0  0  0  0  0  0  0  0  0  0
   -5.5189    1.7339    0.0000 C   0  0  0  0  0  0  0  0  0  0  0  0
   -5.6618    0.2407    0.0000 C   0  0  0  0  0  0  0  0  0  0  0  0
   -4.4402   -0.6296    0.0000 C   0  0  0  0  0  0  0  0  0  0  0  0
    3.3186   -1.3723    0.0000 C   0  0  0  0  0  0  0  0  0  0  0  0
  1  2  1  0
  2  3  1  0
  3  4  1  0
  4  5  1  0
  5  6  1  0
  6  7  1  0
  7  8  1  0
  8  9  1  0
  9 10  1  0
 10 11  2  0
 10 12  1  0
 12 13  1  0
 13 14  1  0
 12 15  1  0
 15 16  2  0
 16 17  1  0
 17 18  2  0
 18 19  1  0
 19 20  2  0
  8 21  1  0
  6  2  1  0
 20 15  1  0
 21  3  1  0
M  END
> <Identifier>
174174.0

> <DILI>
0

$$$$

     RDKit          2D

 28 30  0  0  0  0  0  0  0  0999 V2000
    3.3179   -2.6771    0.0000 C   0  0  0  0  0  0  0  0  0  0  0  0
    3.1953   -1.1821    0.0000 O   0  0  0  0  0  0  0  0  0  0  0  0
    1.8393   -0.5408    0.0000 C   0  0  0  0  0  0  0  0  0  0  0  0
    2.4805    0.8152    0.0000 C   0  0  0  0  0  0  0  0  0  0  0  0
    3.9755    0.9378    0.0000 C   0  0  0  0  0  0  0  0  0  0  0  0
    4.6168    2.2938    0.0000 C   0  0  0  0  0  0  0  0  0  0  0  0
    3.7631    3.5272    0.0000 C   0  0  0  0  0  0  0  0  0  0  0  0
    2.2681    3.4046    0.0000 C   0  0  0  0  0  0  0  0  0  0  0  0
    1.6268    2.0485    0.0000 C   0  0  0  0  0  0  0  0  0  0  0  0
    1.1980   -1.8969    0.0000 C   0  0  0  0  0  0  0  0  0  0  0  0
   -0.2970   -2.0195    0.0000 C   0  0  0  0  0  0  0  0  0  0  0  0
   -0.9382   -3.3755    0.0000 C   0  0  0  0  0  0  0  0  0  0  0  0
   -0.0845   -4.6089    0.0000 C   0  0  0  0  0  0  0  0  0  0  0  0
    1.4104   -4.4862    0.0000 C   0  0  0  0  0  0  0  0  0  0  0  0
    2.0517   -3.1302    0.0000 C   0  0  0  0  0  0  0  0  0  0  0  0
    0.4833    0.1004    0.0000 C   0  0  0  0  0  0  0  0  0  0  0  0
   -0.7501   -0.7533    0.0000 O   0  0  0  0  0  0  0  0  0  0  0  0
   -2.1061   -0.1120    0.0000 C   0  0  0  0  0  0  0  0  0  0  0  0
   -3.3395   -0.9657    0.0000 N   0  0  0  0  0  0  0  0  0  0  0  0
   -4.6955   -0.3244    0.0000 C   0  0  0  0  0  0  0  0  0  0  0  0
   -5.9289   -1.1782    0.0000 C   0  0  0  0  0  0  0  0  0  0  0  0
   -4.8181    1.1705    0.0000 C   0  0  0  0  0  0  0  0  0  0  0  0
   -3.5848    2.0242    0.0000 C   0  0  0  0  0  0  0  0  0  0  0  0
   -3.7074    3.5192    0.0000 C   0  0  0  0  0  0  0  0  0  0  0  0
   -2.2288    1.3830    0.0000 N   0  0  0  0  0  0  0  0  0  0  0  0
    0.3606    1.5954    0.0000 C   0  0  0  0  0  0  0  0  0  0  0  0
   -0.9954    2.2367    0.0000 O   0  0  0  0  0  0  0  0  0  0  0  0
    0.8868    2.1942    0.0000 O   0  0  0  0  0  0  0  0  0  0  0  0
  1  2  1  0
  2  3  1  0
  3  4  1  0
  4  5  2  0
  5  6  1  0
  6  7  2  0
  7  8  1  0
  8  9  2  0
  3 10  1  0
 10 11  2  0
 11 12  1  0
 12 13  2  0
 13 14  1  0
 14 15  2  0
  3 16  1  0
 16 17  1  0
 17 18  1  0
 18 19  2  0
 19 20  1  0
 20 21  1  0
 20 22  2  0
 22 23  1  0
 23 24  1  0
 23 25  2  0
 16 26  1  0
 26 27  2  0
 26 28  1  0
  9  4  1  0
 15 10  1  0
 25 18  1  0
M  END
> <Identifier>
197712.0

> <DILI>
1

$$$$

     RDKit          2D

 57 60  0  0  0  0  0  0  0  0999 V2000
    5.2554   -0.2538    0.0000 C   0  0  0  0  0  0  0  0  0  0  0  0
    3.7585   -0.1570    0.0000 O   0  0  0  0  0  0  0  0  0  0  0  0
    3.4390    1.3085    0.0000 C   0  0  0  0  0  0  0  0  0  0  0  0
    2.0101    1.7646    0.0000 C   0  0  0  0  0  0  0  0  0  0  0  0
    1.6906    3.2302    0.0000 C   0  0  0  0  0  0  0  0  0  0  0  0
    0.2616    3.6863    0.0000 O   0  0  0  0  0  0  0  0  0  0  0  0
   -0.8479    2.6768    0.0000 C   0  0  0  0  0  0  0  0  0  0  0  0
   -2.0790    3.5338    0.0000 C   0  0  0  0  0  0  0  0  0  0  0  0
   -1.5174    4.9247    0.0000 C   0  0  0  0  0  0  0  0  0  0  0  0
   -3.5600    3.7719    0.0000 C   0  0  0  0  0  0  0  0  0  0  0  0
   -3.6575    5.2687    0.0000 O   0  0  0  0  0  0  0  0  0  0  0  0
   -4.9976    3.3437    0.0000 O   0  0  0  0  0  0  0  0  0  0  0  0
   -6.1070    2.3342    0.0000 C   0  0  0  0  0  0  0  0  0  0  0  0
   -7.3381    3.1913    0.0000 C   0  0  0  0  0  0  0  0  0  0  0  0
   -6.6686    0.9433    0.0000 C   0  0  0  0  0  0  0  0  0  0  0  0
   -8.1096    1.3601    0.0000 C   0  0  0  0  0  0  0  0  0  0  0  0
   -6.5711   -0.5535    0.0000 C   0  0  0  0  0  0  0  0  0  0  0  0
   -8.0087   -0.9816    0.0000 O   0  0  0  0  0  0  0  0  0  0  0  0
   -9.0983    0.0493    0.0000 C   0  0  0  0  0  0  0  0  0  0  0  0
  -10.5359   -0.3788    0.0000 C   0  0  0  0  0  0  0  0  0  0  0  0
   -8.9307    1.5399    0.0000 O   0  0  0  0  0  0  0  0  0  0  0  0
   -5.8338   -1.8598    0.0000 C   0  0  0  0  0  0  0  0  0  0  0  0
   -6.9433   -2.8693    0.0000 C   0  0  0  0  0  0  0  0  0  0  0  0
   -4.6028   -2.7168    0.0000 C   0  0  0  0  0  0  0  0  0  0  0  0
   -5.1644   -4.1077    0.0000 O   0  0  0  0  0  0  0  0  0  0  0  0
   -3.1218   -2.9548    0.0000 C   0  0  0  0  0  0  0  0  0  0  0  0
   -2.2889   -4.2024    0.0000 C   0  0  0  0  0  0  0  0  0  0  0  0
   -3.7858   -4.2999    0.0000 O   0  0  0  0  0  0  0  0  0  0  0  0
   -1.6842   -2.5267    0.0000 C   0  0  0  0  0  0  0  0  0  0  0  0
   -0.5747   -1.5172    0.0000 C   0  0  0  0  0  0  0  0  0  0  0  0
    0.3137   -2.5337    0.0000 C   0  0  0  0  0  0  0  0  0  0  0  0
   -0.0131   -0.1263    0.0000 C   0  0  0  0  0  0  0  0  0  0  0  0
    1.4679   -0.3643    0.0000 O   0  0  0  0  0  0  0  0  0  0  0  0
    2.0023   -1.7659    0.0000 C   0  0  0  0  0  0  0  0  0  0  0  0
    1.0556   -2.9295    0.0000 O   0  0  0  0  0  0  0  0  0  0  0  0
    1.5900   -4.3311    0.0000 C   0  0  0  0  0  0  0  0  0  0  0  0
    0.6434   -5.4946    0.0000 C   0  0  0  0  0  0  0  0  0  0  0  0
    3.0710   -4.5691    0.0000 C   0  0  0  0  0  0  0  0  0  0  0  0
    4.0176   -3.4055    0.0000 C   0  0  0  0  0  0  0  0  0  0  0  0
    5.4986   -3.6435    0.0000 N   0  0  0  0  0  0  0  0  0  0  0  0
    6.0330   -5.0451    0.0000 C   0  0  0  0  0  0  0  0  0  0  0  0
    6.2870   -2.8857    0.0000 C   0  0  0  0  0  0  0  0  0  0  0  0
    3.4833   -2.0039    0.0000 C   0  0  0  0  0  0  0  0  0  0  0  0
    4.4299   -0.8404    0.0000 O   0  0  0  0  0  0  0  0  0  0  0  0
    5.9109   -1.0784    0.0000 C   0  0  0  0  0  0  0  0  0  0  0  0
    6.8575    0.0852    0.0000 C   0  0  0  0  0  0  0  0  0  0  0  0
    6.4221   -2.0450    0.0000 O   0  0  0  0  0  0  0  0  0  0  0  0
   -0.1106    1.3705    0.0000 C   0  0  0  0  0  0  0  0  0  0  0  0
    1.3879    1.4381    0.0000 C   0  0  0  0  0  0  0  0  0  0  0  0
    2.8000    4.2397    0.0000 O   0  0  0  0  0  0  0  0  0  0  0  0
    4.2290    3.7836    0.0000 C   0  0  0  0  0  0  0  0  0  0  0  0
    5.3385    4.7931    0.0000 C   0  0  0  0  0  0  0  0  0  0  0  0
    4.5485    2.3180    0.0000 C   0  0  0  0  0  0  0  0  0  0  0  0
    5.9775    1.8619    0.0000 O   0  0  0  0  0  0  0  0  0  0  0  0
    7.0870    2.8714    0.0000 C   0  0  0  0  0  0  0  0  0  0  0  0
    8.5159    2.4153    0.0000 C   0  0  0  0  0  0  0  0  0  0  0  0
    6.7675    4.3370    0.0000 O   0  0  0  0  0  0  0  0  0  0  0  0
  1  2  1  0
  2  3  1  0
  3  4  1  0
  4  5  1  0
  5  6  1  0
  6  7  1  0
  7  8  1  0
  8  9  1  0
  8 10  1  0
 10 11  2  0
 10 12  1  0
 12 13  1  0
 13 14  1  0
 13 15  1  0
 15 16  1  0
 15 17  1  0
 17 18  1  0
 18 19  1  0
 19 20  1  0
 19 21  2  0
 17 22  1  0
 22 23  1  0
 22 24  1  0
 24 25  2  0
 24 26  1  0
 26 27  1  0
 27 28  1  0
 26 29  1  0
 29 30  1  0
 30 31  1  0
 30 32  1  0
 32 33  1  0
 33 34  1  0
 34 35  1  0
 35 36  1  0
 36 37  1  0
 36 38  1  0
 38 39  1  0
 39 40  1  0
 40 41  1  0
 40 42  1  0
 39 43  1  0
 43 44  1  0
 44 45  1  0
 45 46  1  0
 45 47  2  0
 32 48  1  0
 48 49  1  0
  5 50  1  0
 50 51  1  0
 51 52  1  0
 51 53  1  0
 53 54  1  0
 54 55  1  0
 55 56  1  0
 55 57  2  0
 53  3  1  0
 48  7  1  0
 28 26  1  0
 43 34  1  0
M  END
> <Identifier>
202225.0

> <DILI>
1

$$$$

     RDKit          2D

 40 44  0  0  0  0  0  0  0  0999 V2000
   -6.4375    7.6486    0.0000 C   0  0  0  0  0  0  0  0  0  0  0  0
   -6.0015    6.2134    0.0000 S   0  0  0  0  0  0  0  0  0  0  0  0
   -7.4367    5.7774    0.0000 O   0  0  0  0  0  0  0  0  0  0  0  0
   -4.5663    6.6494    0.0000 O   0  0  0  0  0  0  0  0  0  0  0  0
   -5.5655    4.7782    0.0000 C   0  0  0  0  0  0  0  0  0  0  0  0
   -6.5904    3.6830    0.0000 C   0  0  0  0  0  0  0  0  0  0  0  0
   -6.1544    2.2477    0.0000 N   0  0  0  0  0  0  0  0  0  0  0  0
   -7.1794    1.1525    0.0000 C   0  0  0  0  0  0  0  0  0  0  0  0
   -6.7434   -0.2827    0.0000 C   0  0  0  0  0  0  0  0  0  0  0  0
   -7.6482   -1.4791    0.0000 C   0  0  0  0  0  0  0  0  0  0  0  0
   -6.7901   -2.7093    0.0000 C   0  0  0  0  0  0  0  0  0  0  0  0
   -5.3548   -2.2733    0.0000 C   0  0  0  0  0  0  0  0  0  0  0  0
   -4.1585   -3.1782    0.0000 C   0  0  0  0  0  0  0  0  0  0  0  0
   -4.3439   -4.6667    0.0000 C   0  0  0  0  0  0  0  0  0  0  0  0
   -3.1476   -5.5715    0.0000 C   0  0  0  0  0  0  0  0  0  0  0  0
   -1.7658   -4.9879    0.0000 C   0  0  0  0  0  0  0  0  0  0  0  0
   -0.5695   -5.8927    0.0000 N   0  0  0  0  0  0  0  0  0  0  0  0
    0.8123   -5.3091    0.0000 C   0  0  0  0  0  0  0  0  0  0  0  0
    0.9978   -3.8206    0.0000 N   0  0  0  0  0  0  0  0  0  0  0  0
   -0.1985   -2.9158    0.0000 C   0  0  0  0  0  0  0  0  0  0  0  0
   -0.0131   -1.4273    0.0000 N   0  0  0  0  0  0  0  0  0  0  0  0
    1.3687   -0.8436    0.0000 C   0  0  0  0  0  0  0  0  0  0  0  0
    2.5650   -1.7485    0.0000 C   0  0  0  0  0  0  0  0  0  0  0  0
    3.9468   -1.1648    0.0000 C   0  0  0  0  0  0  0  0  0  0  0  0
    4.1323    0.3236    0.0000 C   0  0  0  0  0  0  0  0  0  0  0  0
    5.5141    0.9073    0.0000 O   0  0  0  0  0  0  0  0  0  0  0  0
    6.7104    0.0024    0.0000 C   0  0  0  0  0  0  0  0  0  0  0  0
    8.0922    0.5861    0.0000 C   0  0  0  0  0  0  0  0  0  0  0  0
    9.2886   -0.3188    0.0000 C   0  0  0  0  0  0  0  0  0  0  0  0
   10.6704    0.2648    0.0000 C   0  0  0  0  0  0  0  0  0  0  0  0
   10.8558    1.7533    0.0000 C   0  0  0  0  0  0  0  0  0  0  0  0
    9.6595    2.6582    0.0000 C   0  0  0  0  0  0  0  0  0  0  0  0
    9.8449    4.1467    0.0000 F   0  0  0  0  0  0  0  0  0  0  0  0
    8.2777    2.0746    0.0000 C   0  0  0  0  0  0  0  0  0  0  0  0
    2.9360    1.2285    0.0000 C   0  0  0  0  0  0  0  0  0  0  0  0
    3.1214    2.7170    0.0000 Cl  0  0  0  0  0  0  0  0  0  0  0  0
    1.5542    0.6449    0.0000 C   0  0  0  0  0  0  0  0  0  0  0  0
   -1.5803   -3.4994    0.0000 C   0  0  0  0  0  0  0  0  0  0  0  0
   -2.7767   -2.5945    0.0000 C   0  0  0  0  0  0  0  0  0  0  0  0
   -5.3260   -0.7736    0.0000 O   0  0  0  0  0  0  0  0  0  0  0  0
  1  2  1  0
  2  3  2  0
  2  4  2  0
  2  5  1  0
  5  6  1  0
  6  7  1  0
  7  8  1  0
  8  9  1  0
  9 10  2  0
 10 11  1  0
 11 12  2  0
 12 13  1  0
 13 14  2  0
 14 15  1  0
 15 16  2  0
 16 17  1  0
 17 18  2  0
 18 19  1  0
 19 20  2  0
 20 21  1  0
 21 22  1  0
 22 23  2  0
 23 24  1  0
 24 25  2  0
 25 26  1  0
 26 27  1  0
 27 28  1  0
 28 29  2  0
 29 30  1  0
 30 31  2  0
 31 32  1  0
 32 33  1  0
 32 34  2  0
 25 35  1  0
 35 36  1  0
 35 37  2  0
 20 38  1  0
 38 39  2  0
 12 40  1  0
 40  9  1  0
 39 13  1  0
 38 16  1  0
 37 22  1  0
 34 28  1  0
M  END
> <Identifier>
208908.0

> <DILI>
1

$$$$

     RDKit          2D

 38 41  0  0  0  0  0  0  0  0999 V2000
    6.2475   -2.6047    0.0000 C   0  0  0  0  0  0  0  0  0  0  0  0
    4.7888   -2.2552    0.0000 C   0  0  0  0  0  0  0  0  0  0  0  0
    3.7567   -3.3438    0.0000 C   0  0  0  0  0  0  0  0  0  0  0  0
    4.3621   -0.8172    0.0000 C   0  0  0  0  0  0  0  0  0  0  0  0
    2.9033   -0.4677    0.0000 N   0  0  0  0  0  0  0  0  0  0  0  0
    2.4767    0.9703    0.0000 C   0  0  0  0  0  0  0  0  0  0  0  0
    1.0179    1.3198    0.0000 C   0  0  0  0  0  0  0  0  0  0  0  0
   -0.0141    0.2313    0.0000 O   0  0  0  0  0  0  0  0  0  0  0  0
    0.5912    2.7579    0.0000 C   0  0  0  0  0  0  0  0  0  0  0  0
    1.6233    3.8464    0.0000 C   0  0  0  0  0  0  0  0  0  0  0  0
    3.0820    3.4969    0.0000 C   0  0  0  0  0  0  0  0  0  0  0  0
    3.5087    2.0589    0.0000 C   0  0  0  0  0  0  0  0  0  0  0  0
    4.9674    1.7094    0.0000 C   0  0  0  0  0  0  0  0  0  0  0  0
    5.9994    2.7979    0.0000 C   0  0  0  0  0  0  0  0  0  0  0  0
    5.5727    4.2360    0.0000 C   0  0  0  0  0  0  0  0  0  0  0  0
    4.1140    4.5855    0.0000 C   0  0  0  0  0  0  0  0  0  0  0  0
   -0.8675    3.1073    0.0000 N   0  0  0  0  0  0  0  0  0  0  0  0
   -1.8995    2.0188    0.0000 C   0  0  0  0  0  0  0  0  0  0  0  0
   -1.4728    0.5808    0.0000 O   0  0  0  0  0  0  0  0  0  0  0  0
   -3.3582    2.3683    0.0000 O   0  0  0  0  0  0  0  0  0  0  0  0
   -4.3902    1.2798    0.0000 C   0  0  0  0  0  0  0  0  0  0  0  0
   -4.1162   -0.1950    0.0000 C   0  0  0  0  0  0  0  0  0  0  0  0
   -5.4341   -0.9114    0.0000 O   0  0  0  0  0  0  0  0  0  0  0  0
   -6.5226    0.1207    0.0000 C   0  0  0  0  0  0  0  0  0  0  0  0
   -8.0099    0.3158    0.0000 O   0  0  0  0  0  0  0  0  0  0  0  0
   -8.2839    1.7905    0.0000 C   0  0  0  0  0  0  0  0  0  0  0  0
   -6.9660    2.5069    0.0000 C   0  0  0  0  0  0  0  0  0  0  0  0
   -5.8775    1.4748    0.0000 C   0  0  0  0  0  0  0  0  0  0  0  0
    1.8713   -1.5562    0.0000 S   0  0  0  0  0  0  0  0  0  0  0  0
    0.7828   -0.5242    0.0000 O   0  0  0  0  0  0  0  0  0  0  0  0
    2.9599   -2.5883    0.0000 O   0  0  0  0  0  0  0  0  0  0  0  0
    0.8393   -2.6448    0.0000 C   0  0  0  0  0  0  0  0  0  0  0  0
   -0.6194   -2.2953    0.0000 C   0  0  0  0  0  0  0  0  0  0  0  0
   -1.6514   -3.3838    0.0000 C   0  0  0  0  0  0  0  0  0  0  0  0
   -1.2247   -4.8219    0.0000 C   0  0  0  0  0  0  0  0  0  0  0  0
   -2.2568   -5.9104    0.0000 N   0  0  0  0  0  0  0  0  0  0  0  0
    0.2340   -5.1713    0.0000 C   0  0  0  0  0  0  0  0  0  0  0  0
    1.2660   -4.0828    0.0000 C   0  0  0  0  0  0  0  0  0  0  0  0
  1  2  1  0
  2  3  1  0
  2  4  1  0
  4  5  1  0
  5  6  1  0
  6  7  1  0
  7  8  1  0
  7  9  1  0
  9 10  1  0
 10 11  1  0
 11 12  2  0
 12 13  1  0
 13 14  2  0
 14 15  1  0
 15 16  2  0
  9 17  1  0
 17 18  1  0
 18 19  2  0
 18 20  1  0
 20 21  1  0
 21 22  1  0
 22 23  1  0
 23 24  1  0
 24 25  1  0
 25 26  1  0
 26 27  1  0
 27 28  1  0
  5 29  1  0
 29 30  2  0
 29 31  2  0
 29 32  1  0
 32 33  2  0
 33 34  1  0
 34 35  2  0
 35 36  1  0
 35 37  1  0
 37 38  2  0
 16 11  1  0
 28 21  1  0
 38 32  1  0
 28 24  1  0
M  END
> <Identifier>
213039.0

> <DILI>
1

$$$$

     RDKit          2D

 28 30  0  0  0  0  0  0  0  0999 V2000
   -0.4382    2.3548    0.0000 C   0  0  0  0  0  0  0  0  0  0  0  0
   -0.3079    0.8604    0.0000 C   0  0  0  0  0  0  0  0  0  0  0  0
    1.0514    0.2261    0.0000 O   0  0  0  0  0  0  0  0  0  0  0  0
    1.1817   -1.2682    0.0000 C   0  0  0  0  0  0  0  0  0  0  0  0
    2.5410   -1.9025    0.0000 N   0  0  0  0  0  0  0  0  0  0  0  0
    3.7700   -1.0425    0.0000 C   0  0  0  0  0  0  0  0  0  0  0  0
    5.1292   -1.6768    0.0000 C   0  0  0  0  0  0  0  0  0  0  0  0
    6.3582   -0.8168    0.0000 C   0  0  0  0  0  0  0  0  0  0  0  0
    6.2279    0.6775    0.0000 C   0  0  0  0  0  0  0  0  0  0  0  0
    7.4569    1.5376    0.0000 C   0  0  0  0  0  0  0  0  0  0  0  0
    7.3266    3.0319    0.0000 O   0  0  0  0  0  0  0  0  0  0  0  0
    8.8162    0.9032    0.0000 O   0  0  0  0  0  0  0  0  0  0  0  0
    4.8686    1.3118    0.0000 C   0  0  0  0  0  0  0  0  0  0  0  0
    3.6397    0.4518    0.0000 C   0  0  0  0  0  0  0  0  0  0  0  0
   -0.0473   -2.1282    0.0000 C   0  0  0  0  0  0  0  0  0  0  0  0
    0.0831   -3.6226    0.0000 O   0  0  0  0  0  0  0  0  0  0  0  0
   -1.4065   -1.4939    0.0000 C   0  0  0  0  0  0  0  0  0  0  0  0
   -1.5369    0.0004    0.0000 C   0  0  0  0  0  0  0  0  0  0  0  0
   -2.8961    0.6347    0.0000 C   0  0  0  0  0  0  0  0  0  0  0  0
   -4.1251   -0.2253    0.0000 C   0  0  0  0  0  0  0  0  0  0  0  0
   -5.4844    0.4090    0.0000 C   0  0  0  0  0  0  0  0  0  0  0  0
   -5.6147    1.9033    0.0000 C   0  0  0  0  0  0  0  0  0  0  0  0
   -6.9740    2.5377    0.0000 C   0  0  0  0  0  0  0  0  0  0  0  0
   -8.2030    1.6776    0.0000 C   0  0  0  0  0  0  0  0  0  0  0  0
   -8.0726    0.1833    0.0000 C   0  0  0  0  0  0  0  0  0  0  0  0
   -6.7134   -0.4510    0.0000 C   0  0  0  0  0  0  0  0  0  0  0  0
   -3.9948   -1.7196    0.0000 C   0  0  0  0  0  0  0  0  0  0  0  0
   -2.6355   -2.3539    0.0000 C   0  0  0  0  0  0  0  0  0  0  0  0
  1  2  1  0
  2  3  1  0
  3  4  1  0
  4  5  1  0
  5  6  1  0
  6  7  2  0
  7  8  1  0
  8  9  2  0
  9 10  1  0
 10 11  2  0
 10 12  1  0
  9 13  1  0
 13 14  2  0
  4 15  1  0
 15 16  2  0
 15 17  1  0
 17 18  2  0
 18 19  1  0
 19 20  2  0
 20 21  1  0
 21 22  2  0
 22 23  1  0
 23 24  2  0
 24 25  1  0
 25 26  2  0
 20 27  1  0
 27 28  2  0
 14  6  1  0
 28 17  1  0
 26 21  1  0
M  END
> <Identifier>
239062.0

> <DILI>
1

$$$$

     RDKit          2D

 20 22  0  0  0  0  0  0  0  0999 V2000
   -0.8279   -3.4686    0.0000 C   0  0  0  0  0  0  0  0  0  0  0  0
   -0.7412   -1.9711    0.0000 C   0  0  0  0  0  0  0  0  0  0  0  0
    0.5991   -1.2975    0.0000 C   0  0  0  0  0  0  0  0  0  0  0  0
    1.9318   -1.9858    0.0000 O   0  0  0  0  0  0  0  0  0  0  0  0
    2.9983   -0.9310    0.0000 C   0  0  0  0  0  0  0  0  0  0  0  0
    4.4958   -1.0177    0.0000 C   0  0  0  0  0  0  0  0  0  0  0  0
    5.3196    0.2358    0.0000 C   0  0  0  0  0  0  0  0  0  0  0  0
    4.6460    1.5760    0.0000 C   0  0  0  0  0  0  0  0  0  0  0  0
    3.1485    1.6627    0.0000 C   0  0  0  0  0  0  0  0  0  0  0  0
    2.3246    0.4092    0.0000 C   0  0  0  0  0  0  0  0  0  0  0  0
    0.8419    0.1827    0.0000 C   0  0  0  0  0  0  0  0  0  0  0  0
   -0.2130    1.2492    0.0000 C   0  0  0  0  0  0  0  0  0  0  0  0
    0.1832    2.6959    0.0000 O   0  0  0  0  0  0  0  0  0  0  0  0
   -1.6640    0.8689    0.0000 C   0  0  0  0  0  0  0  0  0  0  0  0
   -2.7188    1.9354    0.0000 C   0  0  0  0  0  0  0  0  0  0  0  0
   -4.1698    1.5551    0.0000 C   0  0  0  0  0  0  0  0  0  0  0  0
   -4.5660    0.1084    0.0000 C   0  0  0  0  0  0  0  0  0  0  0  0
   -6.0170   -0.2719    0.0000 O   0  0  0  0  0  0  0  0  0  0  0  0
   -3.5111   -0.9581    0.0000 C   0  0  0  0  0  0  0  0  0  0  0  0
   -2.0601   -0.5778    0.0000 C   0  0  0  0  0  0  0  0  0  0  0  0
  1  2  1  0
  2  3  1  0
  3  4  1  0
  4  5  1  0
  5  6  2  0
  6  7  1  0
  7  8  2  0
  8  9  1  0
  9 10  2  0
 10 11  1  0
 11 12  1  0
 12 13  2  0
 12 14  1  0
 14 15  2  0
 15 16  1  0
 16 17  2  0
 17 18  1  0
 17 19  1  0
 19 20  2  0
 11  3  2  0
 20 14  1  0
 10  5  1  0
M  END
> <Identifier>
255968.0

> <DILI>
1

$$$$

     RDKit          2D

 11 11  0  0  0  0  0  0  0  0999 V2000
   -1.5015   -2.1299    0.0000 N   0  0  0  0  0  0  0  0  0  0  0  0
   -1.2292   -0.6548    0.0000 C   0  0  0  0  0  0  0  0  0  0  0  0
   -2.3705    0.3185    0.0000 C   0  0  0  0  0  0  0  0  0  0  0  0
   -2.0982    1.7936    0.0000 O   0  0  0  0  0  0  0  0  0  0  0  0
   -3.7841   -0.1833    0.0000 O   0  0  0  0  0  0  0  0  0  0  0  0
    0.1844   -0.1531    0.0000 C   0  0  0  0  0  0  0  0  0  0  0  0
    1.4212   -1.0018    0.0000 C   0  0  0  0  0  0  0  0  0  0  0  0
    2.6106   -0.0878    0.0000 C   0  0  0  0  0  0  0  0  0  0  0  0
    4.0491   -0.5127    0.0000 Cl  0  0  0  0  0  0  0  0  0  0  0  0
    2.1088    1.3258    0.0000 N   0  0  0  0  0  0  0  0  0  0  0  0
    0.6094    1.2855    0.0000 O   0  0  0  0  0  0  0  0  0  0  0  0
  1  2  1  0
  2  3  1  0
  3  4  2  0
  3  5  1  0
  2  6  1  0
  6  7  1  0
  7  8  1  0
  8  9  1  0
  8 10  2  0
 10 11  1  0
 11  6  1  0
M  END
> <Identifier>
294641.0

> <DILI>
0

$$$$

     RDKit          2D

 50 53  0  0  0  0  0  0  0  0999 V2000
   11.6688   -0.9743    0.0000 C   0  0  0  0  0  0  0  0  0  0  0  0
   10.5691    0.0458    0.0000 C   0  0  0  0  0  0  0  0  0  0  0  0
   10.9027    1.5083    0.0000 C   0  0  0  0  0  0  0  0  0  0  0  0
    9.1358   -0.3965    0.0000 C   0  0  0  0  0  0  0  0  0  0  0  0
    7.9354    0.5031    0.0000 N   0  0  0  0  0  0  0  0  0  0  0  0
    6.7090   -0.3605    0.0000 C   0  0  0  0  0  0  0  0  0  0  0  0
    5.2894    0.1241    0.0000 C   0  0  0  0  0  0  0  0  0  0  0  0
    4.9993    1.5958    0.0000 N   0  0  0  0  0  0  0  0  0  0  0  0
    6.1288    2.5829    0.0000 C   0  0  0  0  0  0  0  0  0  0  0  0
    3.5798    2.0805    0.0000 C   0  0  0  0  0  0  0  0  0  0  0  0
    3.2897    3.5522    0.0000 O   0  0  0  0  0  0  0  0  0  0  0  0
    2.4503    1.0934    0.0000 N   0  0  0  0  0  0  0  0  0  0  0  0
    1.0308    1.5780    0.0000 C   0  0  0  0  0  0  0  0  0  0  0  0
   -0.0987    0.5910    0.0000 C   0  0  0  0  0  0  0  0  0  0  0  0
   -1.5183    1.0756    0.0000 O   0  0  0  0  0  0  0  0  0  0  0  0
    0.1913   -0.8807    0.0000 N   0  0  0  0  0  0  0  0  0  0  0  0
   -0.9381   -1.8677    0.0000 C   0  0  0  0  0  0  0  0  0  0  0  0
   -0.6481   -3.3394    0.0000 C   0  0  0  0  0  0  0  0  0  0  0  0
    0.7715   -3.8241    0.0000 C   0  0  0  0  0  0  0  0  0  0  0  0
    1.0616   -5.2957    0.0000 C   0  0  0  0  0  0  0  0  0  0  0  0
    2.4811   -5.7804    0.0000 C   0  0  0  0  0  0  0  0  0  0  0  0
    3.6106   -4.7933    0.0000 C   0  0  0  0  0  0  0  0  0  0  0  0
    3.3205   -3.3216    0.0000 C   0  0  0  0  0  0  0  0  0  0  0  0
    1.9010   -2.8370    0.0000 C   0  0  0  0  0  0  0  0  0  0  0  0
   -2.3577   -1.3831    0.0000 C   0  0  0  0  0  0  0  0  0  0  0  0
   -3.4872   -2.3702    0.0000 C   0  0  0  0  0  0  0  0  0  0  0  0
   -3.1971   -3.8418    0.0000 O   0  0  0  0  0  0  0  0  0  0  0  0
   -4.9067   -1.8855    0.0000 C   0  0  0  0  0  0  0  0  0  0  0  0
   -6.0362   -2.8726    0.0000 C   0  0  0  0  0  0  0  0  0  0  0  0
   -7.4558   -2.3879    0.0000 C   0  0  0  0  0  0  0  0  0  0  0  0
   -8.5852   -3.3750    0.0000 C   0  0  0  0  0  0  0  0  0  0  0  0
  -10.0048   -2.8903    0.0000 C   0  0  0  0  0  0  0  0  0  0  0  0
  -10.2949   -1.4187    0.0000 C   0  0  0  0  0  0  0  0  0  0  0  0
   -9.1654   -0.4316    0.0000 C   0  0  0  0  0  0  0  0  0  0  0  0
   -7.7458   -0.9162    0.0000 C   0  0  0  0  0  0  0  0  0  0  0  0
   -5.1968   -0.4138    0.0000 N   0  0  0  0  0  0  0  0  0  0  0  0
   -4.0673    0.5732    0.0000 C   0  0  0  0  0  0  0  0  0  0  0  0
   -2.6478    0.0886    0.0000 O   0  0  0  0  0  0  0  0  0  0  0  0
   -4.3574    2.0449    0.0000 O   0  0  0  0  0  0  0  0  0  0  0  0
   -3.2279    3.0320    0.0000 C   0  0  0  0  0  0  0  0  0  0  0  0
   -3.5180    4.5036    0.0000 C   0  0  0  0  0  0  0  0  0  0  0  0
   -4.8791    5.1340    0.0000 C   0  0  0  0  0  0  0  0  0  0  0  0
   -4.7002    6.6233    0.0000 N   0  0  0  0  0  0  0  0  0  0  0  0
   -3.2285    6.9134    0.0000 C   0  0  0  0  0  0  0  0  0  0  0  0
   -2.4978    5.6033    0.0000 S   0  0  0  0  0  0  0  0  0  0  0  0
    0.7407    3.0497    0.0000 C   0  0  0  0  0  0  0  0  0  0  0  0
    1.8702    4.0368    0.0000 C   0  0  0  0  0  0  0  0  0  0  0  0
   -0.6789    3.5344    0.0000 C   0  0  0  0  0  0  0  0  0  0  0  0
    7.1513   -1.7938    0.0000 C   0  0  0  0  0  0  0  0  0  0  0  0
    8.6511   -1.8160    0.0000 S   0  0  0  0  0  0  0  0  0  0  0  0
  1  2  1  0
  2  3  1  0
  2  4  1  0
  4  5  2  0
  5  6  1  0
  6  7  1  0
  7  8  1  0
  8  9  1  0
  8 10  1  0
 10 11  2  0
 10 12  1  0
 12 13  1  0
 13 14  1  0
 14 15  2  0
 14 16  1  0
 16 17  1  0
 17 18  1  0
 18 19  1  0
 19 20  2  0
 20 21  1  0
 21 22  2  0
 22 23  1  0
 23 24  2  0
 17 25  1  0
 25 26  1  0
 26 27  1  0
 26 28  1  0
 28 29  1  0
 29 30  1  0
 30 31  2  0
 31 32  1  0
 32 33  2  0
 33 34  1  0
 34 35  2  0
 28 36  1  0
 36 37  1  0
 37 38  2  0
 37 39  1  0
 39 40  1  0
 40 41  1  0
 41 42  2  0
 42 43  1  0
 43 44  2  0
 44 45  1  0
 13 46  1  0
 46 47  1  0
 46 48  1  0
  6 49  2  0
 49 50  1  0
 50  4  1  0
 24 19  1  0
 35 30  1  0
 45 41  1  0
M  END
> <Identifier>
392622.0

> <DILI>
1

$$$$

     RDKit          2D

 12 12  0  0  0  0  0  0  0  0999 V2000
   -4.5107    0.4816    0.0000 N   0  0  0  0  0  0  0  0  0  0  0  0
   -3.0433    0.7929    0.0000 C   0  0  0  0  0  0  0  0  0  0  0  0
   -2.0401   -0.3222    0.0000 C   0  0  0  0  0  0  0  0  0  0  0  0
   -2.5041   -1.7486    0.0000 O   0  0  0  0  0  0  0  0  0  0  0  0
   -0.5727   -0.0109    0.0000 C   0  0  0  0  0  0  0  0  0  0  0  0
   -0.1087    1.4156    0.0000 C   0  0  0  0  0  0  0  0  0  0  0  0
    1.3587    1.7269    0.0000 C   0  0  0  0  0  0  0  0  0  0  0  0
    2.3620    0.6118    0.0000 C   0  0  0  0  0  0  0  0  0  0  0  0
    3.8293    0.9231    0.0000 O   0  0  0  0  0  0  0  0  0  0  0  0
    1.8979   -0.8146    0.0000 C   0  0  0  0  0  0  0  0  0  0  0  0
    2.9012   -1.9297    0.0000 O   0  0  0  0  0  0  0  0  0  0  0  0
    0.4306   -1.1259    0.0000 C   0  0  0  0  0  0  0  0  0  0  0  0
  1  2  1  0
  2  3  1  0
  3  4  1  0
  3  5  1  0
  5  6  2  0
  6  7  1  0
  7  8  2  0
  8  9  1  0
  8 10  1  0
 10 11  1  0
 10 12  2  0
 12  5  1  0
M  END
> <Identifier>
439260.0

> <DILI>
0

$$$$

     RDKit          2D

 69 71  0  0  0  0  0  0  0  0999 V2000
   -9.2814   -4.7937    0.0000 C   0  0  0  0  0  0  0  0  0  0  0  0
   -7.9338   -4.1348    0.0000 C   0  0  0  0  0  0  0  0  0  0  0  0
   -7.8307   -2.6384    0.0000 C   0  0  0  0  0  0  0  0  0  0  0  0
   -9.0751   -1.8008    0.0000 C   0  0  0  0  0  0  0  0  0  0  0  0
   -6.4832   -1.9794    0.0000 C   0  0  0  0  0  0  0  0  0  0  0  0
   -6.9232   -0.5454    0.0000 N   0  0  0  0  0  0  0  0  0  0  0  0
   -6.8985    0.9544    0.0000 C   0  0  0  0  0  0  0  0  0  0  0  0
   -8.3760    1.2134    0.0000 O   0  0  0  0  0  0  0  0  0  0  0  0
   -6.4116    2.3731    0.0000 C   0  0  0  0  0  0  0  0  0  0  0  0
   -7.7367    3.0760    0.0000 C   0  0  0  0  0  0  0  0  0  0  0  0
   -7.7905    4.5750    0.0000 C   0  0  0  0  0  0  0  0  0  0  0  0
   -6.5193    5.3712    0.0000 C   0  0  0  0  0  0  0  0  0  0  0  0
   -6.5731    6.8702    0.0000 C   0  0  0  0  0  0  0  0  0  0  0  0
   -7.8983    7.5731    0.0000 C   0  0  0  0  0  0  0  0  0  0  0  0
   -7.9521    9.0721    0.0000 O   0  0  0  0  0  0  0  0  0  0  0  0
   -9.1695    6.7770    0.0000 C   0  0  0  0  0  0  0  0  0  0  0  0
   -9.1157    5.2779    0.0000 C   0  0  0  0  0  0  0  0  0  0  0  0
   -5.5100    3.5720    0.0000 N   0  0  0  0  0  0  0  0  0  0  0  0
   -4.2822    4.4336    0.0000 C   0  0  0  0  0  0  0  0  0  0  0  0
   -4.9411    5.7811    0.0000 O   0  0  0  0  0  0  0  0  0  0  0  0
   -2.8482    4.8736    0.0000 C   0  0  0  0  0  0  0  0  0  0  0  0
   -3.0584    6.3588    0.0000 N   0  0  0  0  0  0  0  0  0  0  0  0
   -1.3484    4.8489    0.0000 C   0  0  0  0  0  0  0  0  0  0  0  0
    0.0704    4.3620    0.0000 S   0  0  0  0  0  0  0  0  0  0  0  0
    1.2693    3.4605    0.0000 S   0  0  0  0  0  0  0  0  0  0  0  0
    2.1309    2.2326    0.0000 C   0  0  0  0  0  0  0  0  0  0  0  0
    2.5709    0.7986    0.0000 C   0  0  0  0  0  0  0  0  0  0  0  0
    4.0560    1.0088    0.0000 C   0  0  0  0  0  0  0  0  0  0  0  0
    4.9807   -0.1723    0.0000 O   0  0  0  0  0  0  0  0  0  0  0  0
    4.6166    2.4002    0.0000 N   0  0  0  0  0  0  0  0  0  0  0  0
    3.8204    3.6714    0.0000 C   0  0  0  0  0  0  0  0  0  0  0  0
    4.7834    4.8215    0.0000 C   0  0  0  0  0  0  0  0  0  0  0  0
    6.1748    4.2610    0.0000 C   0  0  0  0  0  0  0  0  0  0  0  0
    6.0716    2.7645    0.0000 C   0  0  0  0  0  0  0  0  0  0  0  0
    7.2217    1.8015    0.0000 C   0  0  0  0  0  0  0  0  0  0  0  0
    8.6307    2.3159    0.0000 O   0  0  0  0  0  0  0  0  0  0  0  0
    6.9627    0.3240    0.0000 N   0  0  0  0  0  0  0  0  0  0  0  0
    8.1127   -0.6390    0.0000 C   0  0  0  0  0  0  0  0  0  0  0  0
    7.8537   -2.1165    0.0000 C   0  0  0  0  0  0  0  0  0  0  0  0
    9.0038   -3.0795    0.0000 C   0  0  0  0  0  0  0  0  0  0  0  0
    8.7448   -4.5570    0.0000 C   0  0  0  0  0  0  0  0  0  0  0  0
   10.4128   -2.5651    0.0000 C   0  0  0  0  0  0  0  0  0  0  0  0
    9.5217   -0.1246    0.0000 C   0  0  0  0  0  0  0  0  0  0  0  0
   10.6718   -1.0876    0.0000 O   0  0  0  0  0  0  0  0  0  0  0  0
    9.7807    1.3529    0.0000 N   0  0  0  0  0  0  0  0  0  0  0  0
   11.1897    1.8673    0.0000 C   0  0  0  0  0  0  0  0  0  0  0  0
   11.4487    3.3448    0.0000 C   0  0  0  0  0  0  0  0  0  0  0  0
   12.8578    3.8593    0.0000 N   0  0  0  0  0  0  0  0  0  0  0  0
   10.2987    4.3078    0.0000 O   0  0  0  0  0  0  0  0  0  0  0  0
    2.5462   -0.7012    0.0000 N   0  0  0  0  0  0  0  0  0  0  0  0
    2.0592   -2.1200    0.0000 C   0  0  0  0  0  0  0  0  0  0  0  0
    3.3844   -2.8229    0.0000 O   0  0  0  0  0  0  0  0  0  0  0  0
    1.1577   -3.3188    0.0000 C   0  0  0  0  0  0  0  0  0  0  0  0
    2.2008   -4.3968    0.0000 C   0  0  0  0  0  0  0  0  0  0  0  0
    1.7888   -5.8391    0.0000 C   0  0  0  0  0  0  0  0  0  0  0  0
    2.8319   -6.9171    0.0000 N   0  0  0  0  0  0  0  0  0  0  0  0
    0.3337   -6.2035    0.0000 O   0  0  0  0  0  0  0  0  0  0  0  0
   -0.0701   -4.1804    0.0000 N   0  0  0  0  0  0  0  0  0  0  0  0
   -1.5042   -4.6204    0.0000 C   0  0  0  0  0  0  0  0  0  0  0  0
   -1.2939   -6.1056    0.0000 O   0  0  0  0  0  0  0  0  0  0  0  0
   -3.0039   -4.5958    0.0000 C   0  0  0  0  0  0  0  0  0  0  0  0
   -3.2629   -6.0732    0.0000 C   0  0  0  0  0  0  0  0  0  0  0  0
   -4.6720   -6.5877    0.0000 C   0  0  0  0  0  0  0  0  0  0  0  0
   -4.9310   -8.0652    0.0000 C   0  0  0  0  0  0  0  0  0  0  0  0
   -6.3400   -8.5796    0.0000 N   0  0  0  0  0  0  0  0  0  0  0  0
   -3.7809   -9.0282    0.0000 O   0  0  0  0  0  0  0  0  0  0  0  0
   -4.4227   -4.1088    0.0000 N   0  0  0  0  0  0  0  0  0  0  0  0
   -5.6216   -3.2073    0.0000 C   0  0  0  0  0  0  0  0  0  0  0  0
   -6.6995   -4.2504    0.0000 O   0  0  0  0  0  0  0  0  0  0  0  0
  1  2  1  0
  2  3  1  0
  3  4  1  0
  3  5  1  0
  5  6  1  0
  6  7  1  0
  7  8  2  0
  7  9  1  0
  9 10  1  0
 10 11  1  0
 11 12  2  0
 12 13  1  0
 13 14  2  0
 14 15  1  0
 14 16  1  0
 16 17  2  0
  9 18  1  0
 18 19  1  0
 19 20  2  0
 19 21  1  0
 21 22  1  0
 21 23  1  0
 23 24  1  0
 24 25  1  0
 25 26  1  0
 26 27  1  0
 27 28  1  0
 28 29  2  0
 28 30  1  0
 30 31  1  0
 31 32  1  0
 32 33  1  0
 33 34  1  0
 34 35  1  0
 35 36  2  0
 35 37  1  0
 37 38  1  0
 38 39  1  0
 39 40  1  0
 40 41  1  0
 40 42  1  0
 38 43  1  0
 43 44  2  0
 43 45  1  0
 45 46  1  0
 46 47  1  0
 47 48  1  0
 47 49  2  0
 27 50  1  0
 50 51  1  0
 51 52  2  0
 51 53  1  0
 53 54  1  0
 54 55  1  0
 55 56  1  0
 55 57  2  0
 53 58  1  0
 58 59  1  0
 59 60  2  0
 59 61  1  0
 61 62  1  0
 62 63  1  0
 63 64  1  0
 64 65  1  0
 64 66  2  0
 61 67  1  0
 67 68  1  0
 68 69  2  0
 68  5  1  0
 17 11  1  0
 34 30  1  0
M  END
> <Identifier>
439302.0

> <DILI>
0

$$$$

     RDKit          2D

 24 26  0  0  0  0  0  0  0  0999 V2000
   -2.4684   -3.4329    0.0000 C   0  0  0  0  0  0  0  0  0  0  0  0
   -1.6362   -2.1849    0.0000 O   0  0  0  0  0  0  0  0  0  0  0  0
   -2.3009   -0.8402    0.0000 C   0  0  0  0  0  0  0  0  0  0  0  0
   -3.7978   -0.7435    0.0000 C   0  0  0  0  0  0  0  0  0  0  0  0
   -4.4625    0.6012    0.0000 C   0  0  0  0  0  0  0  0  0  0  0  0
   -5.9594    0.6979    0.0000 O   0  0  0  0  0  0  0  0  0  0  0  0
   -3.6303    1.8492    0.0000 C   0  0  0  0  0  0  0  0  0  0  0  0
   -2.1335    1.7525    0.0000 C   0  0  0  0  0  0  0  0  0  0  0  0
   -1.3013    3.0005    0.0000 C   0  0  0  0  0  0  0  0  0  0  0  0
   -1.4688    0.4078    0.0000 C   0  0  0  0  0  0  0  0  0  0  0  0
   -0.5107    1.5620    0.0000 O   0  0  0  0  0  0  0  0  0  0  0  0
    0.8830    1.0074    0.0000 C   0  0  0  0  0  0  0  0  0  0  0  0
    2.2277    1.6721    0.0000 C   0  0  0  0  0  0  0  0  0  0  0  0
    2.3244    3.1690    0.0000 Cl  0  0  0  0  0  0  0  0  0  0  0  0
    3.4757    0.8400    0.0000 C   0  0  0  0  0  0  0  0  0  0  0  0
    4.8204    1.5047    0.0000 O   0  0  0  0  0  0  0  0  0  0  0  0
    6.0684    0.6725    0.0000 C   0  0  0  0  0  0  0  0  0  0  0  0
    3.3790   -0.6569    0.0000 C   0  0  0  0  0  0  0  0  0  0  0  0
    2.0343   -1.3216    0.0000 C   0  0  0  0  0  0  0  0  0  0  0  0
    1.9376   -2.8185    0.0000 O   0  0  0  0  0  0  0  0  0  0  0  0
    3.1856   -3.6507    0.0000 C   0  0  0  0  0  0  0  0  0  0  0  0
    0.7864   -0.4894    0.0000 C   0  0  0  0  0  0  0  0  0  0  0  0
   -0.6671   -0.8600    0.0000 C   0  0  0  0  0  0  0  0  0  0  0  0
   -0.7857   -1.7378    0.0000 O   0  0  0  0  0  0  0  0  0  0  0  0
  1  2  1  0
  2  3  1  0
  3  4  2  0
  4  5  1  0
  5  6  2  0
  5  7  1  0
  7  8  1  0
  8  9  1  0
  8 10  1  0
 10 11  1  0
 11 12  1  0
 12 13  2  0
 13 14  1  0
 13 15  1  0
 15 16  1  0
 16 17  1  0
 15 18  2  0
 18 19  1  0
 19 20  1  0
 20 21  1  0
 19 22  2  0
 22 23  1  0
 23 24  2  0
 10  3  1  0
 22 12  1  0
 23 10  1  0
M  END
> <Identifier>
441140.0

> <DILI>
1

$$$$

     RDKit          2D

 44 47  0  0  0  0  0  0  0  0999 V2000
    3.6180   -0.6853    0.0000 C   0  0  0  0  0  0  0  0  0  0  0  0
    3.1456    0.7384    0.0000 C   0  0  0  0  0  0  0  0  0  0  0  0
    1.6765    1.0411    0.0000 O   0  0  0  0  0  0  0  0  0  0  0  0
    1.2041    2.4648    0.0000 C   0  0  0  0  0  0  0  0  0  0  0  0
   -0.2650    2.7676    0.0000 O   0  0  0  0  0  0  0  0  0  0  0  0
   -1.2618    1.6467    0.0000 C   0  0  0  0  0  0  0  0  0  0  0  0
   -2.7309    1.9494    0.0000 C   0  0  0  0  0  0  0  0  0  0  0  0
   -3.2033    3.3731    0.0000 C   0  0  0  0  0  0  0  0  0  0  0  0
   -4.6724    3.6759    0.0000 O   0  0  0  0  0  0  0  0  0  0  0  0
   -3.7277    0.8285    0.0000 O   0  0  0  0  0  0  0  0  0  0  0  0
   -3.2553   -0.5952    0.0000 C   0  0  0  0  0  0  0  0  0  0  0  0
   -4.2521   -1.7161    0.0000 O   0  0  0  0  0  0  0  0  0  0  0  0
   -5.7212   -1.4133    0.0000 C   0  0  0  0  0  0  0  0  0  0  0  0
   -6.1936    0.0104    0.0000 C   0  0  0  0  0  0  0  0  0  0  0  0
   -5.1968    1.1313    0.0000 C   0  0  0  0  0  0  0  0  0  0  0  0
   -5.6692    2.5550    0.0000 O   0  0  0  0  0  0  0  0  0  0  0  0
   -7.6627    0.3131    0.0000 O   0  0  0  0  0  0  0  0  0  0  0  0
   -8.6595   -0.8078    0.0000 C   0  0  0  0  0  0  0  0  0  0  0  0
  -10.1286   -0.5050    0.0000 O   0  0  0  0  0  0  0  0  0  0  0  0
   -8.1871   -2.2315    0.0000 C   0  0  0  0  0  0  0  0  0  0  0  0
   -9.1839   -3.3524    0.0000 O   0  0  0  0  0  0  0  0  0  0  0  0
   -6.7180   -2.5342    0.0000 C   0  0  0  0  0  0  0  0  0  0  0  0
   -6.2456   -3.9579    0.0000 O   0  0  0  0  0  0  0  0  0  0  0  0
   -1.7862   -0.8979    0.0000 C   0  0  0  0  0  0  0  0  0  0  0  0
   -1.3138   -2.3216    0.0000 O   0  0  0  0  0  0  0  0  0  0  0  0
   -0.7894    0.2230    0.0000 C   0  0  0  0  0  0  0  0  0  0  0  0
    0.6797   -0.0798    0.0000 O   0  0  0  0  0  0  0  0  0  0  0  0
    2.2009    3.5857    0.0000 C   0  0  0  0  0  0  0  0  0  0  0  0
    1.7285    5.0094    0.0000 O   0  0  0  0  0  0  0  0  0  0  0  0
    3.6700    3.2830    0.0000 C   0  0  0  0  0  0  0  0  0  0  0  0
    4.6668    4.4039    0.0000 O   0  0  0  0  0  0  0  0  0  0  0  0
    4.1424    1.8593    0.0000 C   0  0  0  0  0  0  0  0  0  0  0  0
    5.6115    1.5565    0.0000 N   0  0  0  0  0  0  0  0  0  0  0  0
    6.0838    0.1328    0.0000 C   0  0  0  0  0  0  0  0  0  0  0  0
    5.0871   -0.9881    0.0000 C   0  0  0  0  0  0  0  0  0  0  0  0
    5.5594   -2.4118    0.0000 C   0  0  0  0  0  0  0  0  0  0  0  0
    4.5627   -3.5327    0.0000 C   0  0  0  0  0  0  0  0  0  0  0  0
    5.0350   -4.9564    0.0000 O   0  0  0  0  0  0  0  0  0  0  0  0
    7.0286   -2.7146    0.0000 C   0  0  0  0  0  0  0  0  0  0  0  0
    7.5009   -4.1382    0.0000 O   0  0  0  0  0  0  0  0  0  0  0  0
    8.0253   -1.5936    0.0000 C   0  0  0  0  0  0  0  0  0  0  0  0
    9.4945   -1.8964    0.0000 O   0  0  0  0  0  0  0  0  0  0  0  0
    7.5530   -0.1699    0.0000 C   0  0  0  0  0  0  0  0  0  0  0  0
    8.5497    0.9510    0.0000 O   0  0  0  0  0  0  0  0  0  0  0  0
  1  2  1  0
  2  3  1  0
  3  4  1  0
  4  5  1  0
  5  6  1  0
  6  7  1  0
  7  8  1  0
  8  9  1  0
  7 10  1  0
 10 11  1  0
 11 12  1  0
 12 13  1  0
 13 14  1  0
 14 15  1  0
 15 16  1  0
 14 17  1  0
 17 18  1  0
 18 19  1  0
 18 20  1  0
 20 21  1  0
 20 22  1  0
 22 23  1  0
 11 24  1  0
 24 25  1  0
 24 26  1  0
 26 27  1  0
  4 28  1  0
 28 29  1  0
 28 30  1  0
 30 31  1  0
 30 32  1  0
 32 33  1  0
 33 34  1  0
 34 35  1  0
 35 36  2  0
 36 37  1  0
 37 38  1  0
 36 39  1  0
 39 40  1  0
 39 41  1  0
 41 42  1  0
 41 43  1  0
 43 44  1  0
 32  2  1  0
 43 34  1  0
 26  6  1  0
 22 13  1  0
M  END
> <Identifier>
441184.0

> <DILI>
1

$$$$

     RDKit          2D

 28 30  0  0  0  0  0  0  0  0999 V2000
   -2.4284    4.2304    0.0000 C   0  0  0  0  0  0  0  0  0  0  0  0
   -1.0655    3.6039    0.0000 O   0  0  0  0  0  0  0  0  0  0  0  0
   -0.9266    2.1103    0.0000 C   0  0  0  0  0  0  0  0  0  0  0  0
   -2.4201    1.9714    0.0000 N   0  0  0  0  0  0  0  0  0  0  0  0
   -3.0466    0.6085    0.0000 C   0  0  0  0  0  0  0  0  0  0  0  0
   -2.4704   -0.4611    0.0000 O   0  0  0  0  0  0  0  0  0  0  0  0
   -4.5402    0.4696    0.0000 C   0  0  0  0  0  0  0  0  0  0  0  0
   -5.1666   -0.8933    0.0000 C   0  0  0  0  0  0  0  0  0  0  0  0
   -6.6375   -1.1876    0.0000 C   0  0  0  0  0  0  0  0  0  0  0  0
   -6.8121   -2.6774    0.0000 C   0  0  0  0  0  0  0  0  0  0  0  0
   -5.4492   -3.3039    0.0000 C   0  0  0  0  0  0  0  0  0  0  0  0
   -4.4323   -2.2012    0.0000 S   0  0  0  0  0  0  0  0  0  0  0  0
   -0.7877    0.6168    0.0000 C   0  0  0  0  0  0  0  0  0  0  0  0
   -1.4438   -0.4058    0.0000 O   0  0  0  0  0  0  0  0  0  0  0  0
    0.7059    0.7557    0.0000 N   0  0  0  0  0  0  0  0  0  0  0  0
    2.0688    0.1292    0.0000 C   0  0  0  0  0  0  0  0  0  0  0  0
    2.2077   -1.3643    0.0000 C   0  0  0  0  0  0  0  0  0  0  0  0
    3.5706   -1.9908    0.0000 O   0  0  0  0  0  0  0  0  0  0  0  0
    0.9837   -2.2314    0.0000 O   0  0  0  0  0  0  0  0  0  0  0  0
    3.2928    0.9963    0.0000 C   0  0  0  0  0  0  0  0  0  0  0  0
    4.6557    0.3698    0.0000 C   0  0  0  0  0  0  0  0  0  0  0  0
    4.7946   -1.1237    0.0000 O   0  0  0  0  0  0  0  0  0  0  0  0
    6.1575   -1.7502    0.0000 C   0  0  0  0  0  0  0  0  0  0  0  0
    6.2964   -3.2437    0.0000 N   0  0  0  0  0  0  0  0  0  0  0  0
    7.3815   -0.8831    0.0000 O   0  0  0  0  0  0  0  0  0  0  0  0
    3.1539    2.4899    0.0000 C   0  0  0  0  0  0  0  0  0  0  0  0
    1.7910    3.1163    0.0000 S   0  0  0  0  0  0  0  0  0  0  0  0
    0.5670    2.2493    0.0000 C   0  0  0  0  0  0  0  0  0  0  0  0
  1  2  1  0
  2  3  1  0
  3  4  1  0
  4  5  1  0
  5  6  2  0
  5  7  1  0
  7  8  1  0
  8  9  2  0
  9 10  1  0
 10 11  2  0
 11 12  1  0
  3 13  1  0
 13 14  2  0
 13 15  1  0
 15 16  1  0
 16 17  1  0
 17 18  2  0
 17 19  1  0
 16 20  2  0
 20 21  1  0
 21 22  1  0
 22 23  1  0
 23 24  1  0
 23 25  2  0
 20 26  1  0
 26 27  1  0
 27 28  1  0
 28  3  1  0
 12  8  1  0
 28 15  1  0
M  END
> <Identifier>
441199.0

> <DILI>
1

$$$$

     RDKit          2D

 10 11  0  0  0  0  0  0  0  0999 V2000
   -3.6494    1.2396    0.0000 N   0  0  0  0  0  0  0  0  0  0  0  0
   -2.6887    0.0876    0.0000 C   0  0  0  0  0  0  0  0  0  0  0  0
   -2.4327   -1.3904    0.0000 C   0  0  0  0  0  0  0  0  0  0  0  0
   -1.2807   -0.4298    0.0000 C   0  0  0  0  0  0  0  0  0  0  0  0
    0.1973   -0.1738    0.0000 C   0  0  0  0  0  0  0  0  0  0  0  0
    1.1579   -1.3258    0.0000 C   0  0  0  0  0  0  0  0  0  0  0  0
    2.6359   -1.0698    0.0000 C   0  0  0  0  0  0  0  0  0  0  0  0
    3.1533    0.3382    0.0000 C   0  0  0  0  0  0  0  0  0  0  0  0
    2.1926    1.4902    0.0000 C   0  0  0  0  0  0  0  0  0  0  0  0
    0.7146    1.2342    0.0000 C   0  0  0  0  0  0  0  0  0  0  0  0
  1  2  1  0
  2  3  1  0
  3  4  1  0
  4  5  1  0
  5  6  2  0
  6  7  1  0
  7  8  2  0
  8  9  1  0
  9 10  2  0
  4  2  1  0
 10  5  1  0
M  END
> <Identifier>
441233.0

> <DILI>
0

$$$$

     RDKit          2D

 21 23  0  0  0  0  0  0  0  0999 V2000
   -5.7326    2.4872    0.0000 C   0  0  0  0  0  0  0  0  0  0  0  0
   -5.2040    1.0834    0.0000 C   0  0  0  0  0  0  0  0  0  0  0  0
   -6.1554   -0.0763    0.0000 C   0  0  0  0  0  0  0  0  0  0  0  0
   -3.7240    0.8393    0.0000 C   0  0  0  0  0  0  0  0  0  0  0  0
   -3.1954   -0.5645    0.0000 C   0  0  0  0  0  0  0  0  0  0  0  0
   -1.7154   -0.8086    0.0000 N   0  0  0  0  0  0  0  0  0  0  0  0
   -1.1868   -2.2124    0.0000 C   0  0  0  0  0  0  0  0  0  0  0  0
    0.2932   -2.4565    0.0000 C   0  0  0  0  0  0  0  0  0  0  0  0
    1.2446   -1.2968    0.0000 C   0  0  0  0  0  0  0  0  0  0  0  0
    1.7732   -2.7006    0.0000 C   0  0  0  0  0  0  0  0  0  0  0  0
    2.1960   -0.1371    0.0000 C   0  0  0  0  0  0  0  0  0  0  0  0
    3.6760   -0.3812    0.0000 C   0  0  0  0  0  0  0  0  0  0  0  0
    4.6274    0.7784    0.0000 C   0  0  0  0  0  0  0  0  0  0  0  0
    6.1074    0.5343    0.0000 O   0  0  0  0  0  0  0  0  0  0  0  0
    4.0988    2.1822    0.0000 C   0  0  0  0  0  0  0  0  0  0  0  0
    2.6188    2.4263    0.0000 C   0  0  0  0  0  0  0  0  0  0  0  0
    1.6674    1.2666    0.0000 C   0  0  0  0  0  0  0  0  0  0  0  0
    0.1874    1.5107    0.0000 C   0  0  0  0  0  0  0  0  0  0  0  0
   -0.7640    0.3511    0.0000 C   0  0  0  0  0  0  0  0  0  0  0  0
   -0.2354   -1.0527    0.0000 C   0  0  0  0  0  0  0  0  0  0  0  0
   -0.5769   -1.7730    0.0000 C   0  0  0  0  0  0  0  0  0  0  0  0
  1  2  1  0
  2  3  1  0
  2  4  2  0
  4  5  1  0
  5  6  1  0
  6  7  1  0
  7  8  1  0
  8  9  1  0
  9 10  1  0
  9 11  1  0
 11 12  2  0
 12 13  1  0
 13 14  1  0
 13 15  2  0
 15 16  1  0
 16 17  2  0
 17 18  1  0
 18 19  1  0
 19 20  1  0
 20 21  1  0
 19  6  1  0
 20  9  1  0
 17 11  1  0
M  END
> <Identifier>
441278.0

> <DILI>
0

$$$$

     RDKit          2D

 33 35  0  0  0  0  0  0  0  0999 V2000
   -5.6651   -2.3469    0.0000 C   0  0  0  0  0  0  0  0  0  0  0  0
   -4.5394   -1.3556    0.0000 N   0  0  0  0  0  4  0  0  0  0  0  0
   -4.8351    0.1150    0.0000 C   0  0  0  0  0  0  0  0  0  0  0  0
   -3.1180   -1.8348    0.0000 C   0  0  0  0  0  0  0  0  0  0  0  0
   -1.9923   -0.8435    0.0000 C   0  0  0  0  0  0  0  0  0  0  0  0
   -0.5709   -1.3227    0.0000 O   0  0  0  0  0  0  0  0  0  0  0  0
    0.5548   -0.3314    0.0000 C   0  0  0  0  0  0  0  0  0  0  0  0
    1.9762   -0.8106    0.0000 C   0  0  0  0  0  0  0  0  0  0  0  0
    2.2718   -2.2812    0.0000 C   0  0  0  0  0  0  0  0  0  0  0  0
    3.6932   -2.7604    0.0000 C   0  0  0  0  0  0  0  0  0  0  0  0
    4.8189   -1.7691    0.0000 C   0  0  0  0  0  0  0  0  0  0  0  0
    4.5233   -0.2985    0.0000 C   0  0  0  0  0  0  0  0  0  0  0  0
    3.1019    0.1807    0.0000 C   0  0  0  0  0  0  0  0  0  0  0  0
    0.2591    1.1392    0.0000 C   0  0  0  0  0  0  0  0  0  0  0  0
    1.3848    2.1306    0.0000 C   0  0  0  0  0  0  0  0  0  0  0  0
    1.0892    3.6011    0.0000 C   0  0  0  0  0  0  0  0  0  0  0  0
   -0.3322    4.0804    0.0000 C   0  0  0  0  0  0  0  0  0  0  0  0
   -1.4579    3.0890    0.0000 C   0  0  0  0  0  0  0  0  0  0  0  0
   -1.1623    1.6184    0.0000 C   0  0  0  0  0  0  0  0  0  0  0  0
    0.6407    5.0804    0.0000 C   0  0  0  0  0  0  0  0  0  0  0  0
    0.6407    6.5804    0.0000 N   0  0  0  0  0  0  0  0  0  0  0  0
   -0.6583    7.3304    0.0000 C   0  0  0  0  0  0  0  0  0  0  0  0
   -2.0849    6.8668    0.0000 N   0  0  0  0  0  0  0  0  0  0  0  0
   -2.9666    8.0804    0.0000 C   0  0  0  0  0  0  0  0  0  0  0  0
   -4.4666    8.0804    0.0000 Cl  0  0  0  0  0  0  0  0  0  0  0  0
   -2.0849    9.2939    0.0000 N   0  0  0  0  0  0  0  0  0  0  0  0
   -0.6583    8.8304    0.0000 C   0  0  0  0  0  0  0  0  0  0  0  0
    0.6407    9.5804    0.0000 C   0  0  0  0  0  0  0  0  0  0  0  0
    0.6407   11.0804    0.0000 O   0  0  0  0  0  1  0  0  0  0  0  0
    1.9397    8.8304    0.0000 N   0  0  0  0  0  0  0  0  0  0  0  0
    3.2388    9.5804    0.0000 C   0  0  0  0  0  0  0  0  0  0  0  0
    1.9397    7.3304    0.0000 C   0  0  0  0  0  0  0  0  0  0  0  0
    3.2388    6.5804    0.0000 O   0  0  0  0  0  0  0  0  0  0  0  0
  1  2  1  0
  2  3  1  0
  2  4  1  0
  4  5  1  0
  5  6  1  0
  6  7  1  0
  7  8  1  0
  8  9  2  0
  9 10  1  0
 10 11  2  0
 11 12  1  0
 12 13  2  0
  7 14  1  0
 14 15  2  0
 15 16  1  0
 16 17  2  0
 17 18  1  0
 18 19  2  0
 20 21  1  0
 21 22  1  0
 22 23  2  0
 23 24  1  0
 24 25  1  0
 24 26  2  0
 26 27  1  0
 27 28  2  0
 28 29  1  0
 28 30  1  0
 30 31  1  0
 30 32  1  0
 32 33  2  0
 13  8  1  0
 19 14  1  0
 32 21  1  0
 27 22  1  0
M  CHG  2   2   1  29  -1
M  END
> <Identifier>
441281.0

> <DILI>
0

$$$$

     RDKit          2D

 38 43  0  0  0  0  0  0  0  0999 V2000
    5.8234    4.4312    0.0000 C   0  0  0  0  0  0  0  0  0  0  0  0
    6.1819    2.9747    0.0000 C   0  0  0  0  0  0  0  0  0  0  0  0
    5.0997    1.9360    0.0000 C   0  0  0  0  0  0  0  0  0  0  0  0
    5.4583    0.4794    0.0000 N   0  0  0  0  0  4  0  0  0  0  0  0
    3.9722    0.2751    0.0000 C   0  0  0  0  0  0  0  0  0  0  0  0
    2.9335    1.3573    0.0000 C   0  0  0  0  0  0  0  0  0  0  0  0
    1.5833    0.7038    0.0000 C   0  0  0  0  0  0  0  0  0  0  0  0
    0.1942    1.2699    0.0000 C   0  0  0  0  0  0  0  0  0  0  0  0
   -0.0101    2.7559    0.0000 C   0  0  0  0  0  0  0  0  0  0  0  0
   -1.3991    3.3220    0.0000 C   0  0  0  0  0  0  0  0  0  0  0  0
   -2.5839    2.4020    0.0000 C   0  0  0  0  0  0  0  0  0  0  0  0
   -3.9730    2.9681    0.0000 C   0  0  0  0  0  0  0  0  0  0  0  0
   -5.1578    2.0482    0.0000 C   0  0  0  0  0  0  0  0  0  0  0  0
   -6.5469    2.6143    0.0000 O   0  0  0  0  0  0  0  0  0  0  0  0
   -4.9535    0.5621    0.0000 C   0  0  0  0  0  0  0  0  0  0  0  0
   -6.1383   -0.3578    0.0000 N   0  0  0  0  0  0  0  0  0  0  0  0
   -7.5274    0.2083    0.0000 C   0  0  0  0  0  0  0  0  0  0  0  0
   -8.7121   -0.7116    0.0000 C   0  0  0  0  0  0  0  0  0  0  0  0
   -8.5078   -2.1977    0.0000 O   0  0  0  0  0  0  0  0  0  0  0  0
   -7.1188   -2.7638    0.0000 C   0  0  0  0  0  0  0  0  0  0  0  0
   -5.9340   -1.8438    0.0000 C   0  0  0  0  0  0  0  0  0  0  0  0
   -3.5644   -0.0039    0.0000 C   0  0  0  0  0  0  0  0  0  0  0  0
   -2.3796    0.9160    0.0000 C   0  0  0  0  0  0  0  0  0  0  0  0
   -2.1753   -0.5700    0.0000 C   0  0  0  0  0  0  0  0  0  0  0  0
   -0.9905    0.3499    0.0000 C   0  0  0  0  0  0  0  0  0  0  0  0
   -0.7862   -1.1361    0.0000 C   0  0  0  0  0  0  0  0  0  0  0  0
    0.6028   -1.7022    0.0000 C   0  0  0  0  0  0  0  0  0  0  0  0
    1.7876   -0.7822    0.0000 C   0  0  0  0  0  0  0  0  0  0  0  0
    2.1461   -2.2388    0.0000 C   0  0  0  0  0  0  0  0  0  0  0  0
    3.2640   -1.0472    0.0000 C   0  0  0  0  0  0  0  0  0  0  0  0
    3.9176   -2.3973    0.0000 O   0  0  0  0  0  0  0  0  0  0  0  0
    3.0750   -3.6383    0.0000 C   0  0  0  0  0  0  0  0  0  0  0  0
    3.7285   -4.9885    0.0000 C   0  0  0  0  0  0  0  0  0  0  0  0
    1.5790   -3.5292    0.0000 O   0  0  0  0  0  0  0  0  0  0  0  0
    6.8693    0.9882    0.0000 C   0  0  0  0  0  0  0  0  0  0  0  0
    7.7893   -0.1965    0.0000 C   0  0  0  0  0  0  0  0  0  0  0  0
    6.9467   -1.4376    0.0000 C   0  0  0  0  0  0  0  0  0  0  0  0
    5.5061   -1.0198    0.0000 C   0  0  0  0  0  0  0  0  0  0  0  0
  1  2  2  0
  2  3  1  0
  3  4  1  0
  4  5  1  0
  5  6  1  0
  6  7  1  0
  7  8  1  0
  8  9  1  0
  9 10  1  0
 10 11  1  0
 11 12  1  0
 12 13  1  0
 13 14  1  0
 13 15  1  0
 15 16  1  0
 16 17  1  0
 17 18  1  0
 18 19  1  0
 19 20  1  0
 20 21  1  0
 15 22  1  0
 22 23  1  0
 23 24  1  0
 23 25  1  0
 25 26  1  0
 26 27  1  0
 27 28  1  0
 28 29  1  0
 28 30  1  0
 30 31  1  0
 31 32  1  0
 32 33  1  0
 32 34  2  0
  4 35  1  0
 35 36  1  0
 36 37  1  0
 37 38  1  0
 38  4  1  0
 30  5  1  0
 28  7  1  0
 25  8  1  0
 23 11  1  0
 21 16  1  0
M  CHG  1   4   1
M  END
> <Identifier>
441290.0

> <DILI>
0

$$$$

     RDKit          2D

 14 14  0  0  0  0  0  0  0  0999 V2000
   -2.8728    1.6596    0.0000 C   0  0  0  0  0  0  0  0  0  0  0  0
   -1.9195    0.5015    0.0000 C   0  0  0  0  0  0  0  0  0  0  0  0
   -0.7614    1.4549    0.0000 N   0  0  0  0  0  0  0  0  0  0  0  0
   -0.9661   -0.6566    0.0000 C   0  0  0  0  0  0  0  0  0  0  0  0
    0.5135   -0.4100    0.0000 C   0  0  0  0  0  0  0  0  0  0  0  0
    1.0397    0.9947    0.0000 C   0  0  0  0  0  0  0  0  0  0  0  0
    2.5193    1.2413    0.0000 C   0  0  0  0  0  0  0  0  0  0  0  0
    3.4726    0.0832    0.0000 C   0  0  0  0  0  0  0  0  0  0  0  0
    4.9522    0.3298    0.0000 O   0  0  0  0  0  0  0  0  0  0  0  0
    2.9464   -1.3215    0.0000 C   0  0  0  0  0  0  0  0  0  0  0  0
    1.4668   -1.5681    0.0000 C   0  0  0  0  0  0  0  0  0  0  0  0
   -3.0776   -0.4518    0.0000 C   0  0  0  0  0  0  0  0  0  0  0  0
   -4.4822    0.0744    0.0000 O   0  0  0  0  0  0  0  0  0  0  0  0
   -2.8310   -1.9314    0.0000 O   0  0  0  0  0  0  0  0  0  0  0  0
  1  2  1  0
  2  3  1  0
  2  4  1  0
  4  5  1  0
  5  6  2  0
  6  7  1  0
  7  8  2  0
  8  9  1  0
  8 10  1  0
 10 11  2  0
  2 12  1  0
 12 13  2  0
 12 14  1  0
 11  5  1  0
M  END
> <Identifier>
441350.0

> <DILI>
0

$$$$

     RDKit          2D

 24 27  0  0  0  0  0  0  0  0999 V2000
   -6.8109    0.9314    0.0000 C   0  0  0  0  0  0  0  0  0  0  0  0
   -5.6037    0.0411    0.0000 C   0  0  0  0  0  0  0  0  0  0  0  0
   -5.7711   -1.4495    0.0000 C   0  0  0  0  0  0  0  0  0  0  0  0
   -7.1457   -2.0499    0.0000 O   0  0  0  0  0  0  0  0  0  0  0  0
   -4.2291    0.6414    0.0000 N   0  0  0  0  0  0  0  0  0  0  0  0
   -3.0219   -0.2488    0.0000 C   0  0  0  0  0  0  0  0  0  0  0  0
   -3.1893   -1.7395    0.0000 O   0  0  0  0  0  0  0  0  0  0  0  0
   -1.6473    0.3515    0.0000 C   0  0  0  0  0  0  0  0  0  0  0  0
   -0.4400   -0.5388    0.0000 C   0  0  0  0  0  0  0  0  0  0  0  0
    0.9346    0.0616    0.0000 C   0  0  0  0  0  0  0  0  0  0  0  0
    2.1418   -0.8287    0.0000 C   0  0  0  0  0  0  0  0  0  0  0  0
    1.9744   -2.3193    0.0000 C   0  0  0  0  0  0  0  0  0  0  0  0
    3.1817   -3.2096    0.0000 C   0  0  0  0  0  0  0  0  0  0  0  0
    4.5563   -2.6093    0.0000 C   0  0  0  0  0  0  0  0  0  0  0  0
    4.7237   -1.1186    0.0000 C   0  0  0  0  0  0  0  0  0  0  0  0
    5.8455   -0.1229    0.0000 N   0  0  0  0  0  0  0  0  0  0  0  0
    5.2451    1.2517    0.0000 C   0  0  0  0  0  0  0  0  0  0  0  0
    3.6838    1.2623    0.0000 C   0  0  0  0  0  0  0  0  0  0  0  0
    3.5164   -0.2284    0.0000 C   0  0  0  0  0  0  0  0  0  0  0  0
    2.4766    2.1525    0.0000 C   0  0  0  0  0  0  0  0  0  0  0  0
    1.1020    1.5522    0.0000 C   0  0  0  0  0  0  0  0  0  0  0  0
   -0.1052    2.4425    0.0000 N   0  0  0  0  0  0  0  0  0  0  0  0
    0.0622    3.9331    0.0000 C   0  0  0  0  0  0  0  0  0  0  0  0
   -1.4799    1.8421    0.0000 C   0  0  0  0  0  0  0  0  0  0  0  0
  1  2  1  0
  2  3  1  0
  3  4  1  0
  2  5  1  0
  5  6  1  0
  6  7  2  0
  6  8  1  0
  8  9  1  0
  9 10  2  0
 10 11  1  0
 11 12  2  0
 12 13  1  0
 13 14  2  0
 14 15  1  0
 15 16  1  0
 16 17  1  0
 17 18  2  0
 18 19  1  0
 18 20  1  0
 20 21  1  0
 21 22  1  0
 22 23  1  0
 22 24  1  0
 24  8  1  0
 21 10  1  0
 19 11  1  0
 19 15  2  0
M  END
> <Identifier>
443884.0

> <DILI>
0

$$$$

     RDKit          2D

 36 34  0  0  0  0  0  0  0  0999 V2000
   12.6710    2.5080    0.0000 C   0  0  0  0  0  0  0  0  0  0  0  0
   11.5522    1.5089    0.0000 O   0  0  0  0  0  0  0  0  0  0  0  0
   10.1275    1.9782    0.0000 C   0  0  0  0  0  0  0  0  0  0  0  0
    9.0087    0.9791    0.0000 C   0  0  0  0  0  0  0  0  0  0  0  0
    7.5840    1.4484    0.0000 N   0  0  0  0  0  0  0  0  0  0  0  0
    6.4652    0.4493    0.0000 C   0  0  0  0  0  0  0  0  0  0  0  0
    6.7711   -1.0192    0.0000 O   0  0  0  0  0  0  0  0  0  0  0  0
    5.0405    0.9186    0.0000 C   0  0  0  0  0  0  0  0  0  0  0  0
    3.9217   -0.0805    0.0000 N   0  0  0  0  0  0  0  0  0  0  0  0
    2.4970    0.3888    0.0000 C   0  0  0  0  0  0  0  0  0  0  0  0
    1.3782   -0.6103    0.0000 C   0  0  0  0  0  0  0  0  0  0  0  0
   -0.0465   -0.1410    0.0000 N   0  0  0  0  0  0  0  0  0  0  0  0
   -1.1653   -1.1402    0.0000 C   0  0  0  0  0  0  0  0  0  0  0  0
   -2.5899   -0.6708    0.0000 C   0  0  0  0  0  0  0  0  0  0  0  0
   -3.7087   -1.6700    0.0000 N   0  0  0  0  0  0  0  0  0  0  0  0
   -3.4028   -3.1384    0.0000 C   0  0  0  0  0  0  0  0  0  0  0  0
   -4.5216   -4.1376    0.0000 C   0  0  0  0  0  0  0  0  0  0  0  0
   -5.9463   -3.6683    0.0000 O   0  0  0  0  0  0  0  0  0  0  0  0
   -4.2158   -5.6061    0.0000 O   0  0  0  0  0  1  0  0  0  0  0  0
   -5.1334   -1.2006    0.0000 C   0  0  0  0  0  0  0  0  0  0  0  0
   -5.4393    0.2679    0.0000 C   0  0  0  0  0  0  0  0  0  0  0  0
   -4.3205    1.2670    0.0000 O   0  0  0  0  0  0  0  0  0  0  0  0
   -6.8640    0.7372    0.0000 N   0  0  0  0  0  0  0  0  0  0  0  0
   -7.1699    2.2057    0.0000 C   0  0  0  0  0  0  0  0  0  0  0  0
   -8.5946    2.6750    0.0000 C   0  0  0  0  0  0  0  0  0  0  0  0
   -8.9004    4.1435    0.0000 O   0  0  0  0  0  0  0  0  0  0  0  0
  -10.3251    4.6128    0.0000 C   0  0  0  0  0  0  0  0  0  0  0  0
   -0.3523    1.3275    0.0000 C   0  0  0  0  0  0  0  0  0  0  0  0
   -1.7770    1.7968    0.0000 C   0  0  0  0  0  0  0  0  0  0  0  0
   -2.8958    0.7977    0.0000 O   0  0  0  0  0  0  0  0  0  0  0  0
   -2.0829    3.2653    0.0000 O   0  0  0  0  0  1  0  0  0  0  0  0
    4.2276   -1.5490    0.0000 C   0  0  0  0  0  0  0  0  0  0  0  0
    3.1088   -2.5482    0.0000 C   0  0  0  0  0  0  0  0  0  0  0  0
    1.6841   -2.0788    0.0000 O   0  0  0  0  0  0  0  0  0  0  0  0
    3.4147   -4.0166    0.0000 O   0  0  0  0  0  1  0  0  0  0  0  0
    0.0000    5.6128    0.0000 Gd  0  0  0  0  0 15  0  0  0  0  0  0
  1  2  1  0
  2  3  1  0
  3  4  1  0
  4  5  1  0
  5  6  1  0
  6  7  2  0
  6  8  1  0
  8  9  1  0
  9 10  1  0
 10 11  1  0
 11 12  1  0
 12 13  1  0
 13 14  1  0
 14 15  1  0
 15 16  1  0
 16 17  1  0
 17 18  2  0
 17 19  1  0
 15 20  1  0
 20 21  1  0
 21 22  2  0
 21 23  1  0
 23 24  1  0
 24 25  1  0
 25 26  1  0
 26 27  1  0
 12 28  1  0
 28 29  1  0
 29 30  2  0
 29 31  1  0
  9 32  1  0
 32 33  1  0
 33 34  2  0
 33 35  1  0
M  CHG  4  19  -1  31  -1  35  -1  36   3
M  END
> <Identifier>
444013.0

> <DILI>
0

$$$$

     RDKit          2D

 21 21  0  0  0  0  0  0  0  0999 V2000
    1.2312   -2.6478    0.0000 C   0  0  0  0  0  0  0  0  0  0  0  0
    0.4988   -1.3388    0.0000 C   0  0  0  0  0  0  0  0  0  0  0  0
   -1.0011   -1.3186    0.0000 C   0  0  0  0  0  0  0  0  0  0  0  0
   -1.7336   -0.0096    0.0000 C   0  0  0  0  0  0  0  0  0  0  0  0
   -3.2334    0.0106    0.0000 C   0  0  0  0  0  0  0  0  0  0  0  0
   -4.0008   -1.2783    0.0000 C   0  0  0  0  0  0  0  0  0  0  0  0
   -3.2684   -2.5873    0.0000 C   0  0  0  0  0  0  0  0  0  0  0  0
   -5.5007   -1.2581    0.0000 C   0  0  0  0  0  0  0  0  0  0  0  0
   -6.2332    0.0509    0.0000 C   0  0  0  0  0  0  0  0  0  0  0  0
   -5.4658    1.3397    0.0000 C   0  0  0  0  0  0  0  0  0  0  0  0
   -3.9659    1.3196    0.0000 C   0  0  0  0  0  0  0  0  0  0  0  0
   -4.2065    2.8001    0.0000 C   0  0  0  0  0  0  0  0  0  0  0  0
   -2.5496    1.8136    0.0000 C   0  0  0  0  0  0  0  0  0  0  0  0
    1.2662   -0.0499    0.0000 C   0  0  0  0  0  0  0  0  0  0  0  0
    2.7660   -0.0701    0.0000 C   0  0  0  0  0  0  0  0  0  0  0  0
    3.5334    1.2187    0.0000 C   0  0  0  0  0  0  0  0  0  0  0  0
    5.0333    1.1986    0.0000 C   0  0  0  0  0  0  0  0  0  0  0  0
    5.8007    2.4874    0.0000 C   0  0  0  0  0  0  0  0  0  0  0  0
    5.7657   -0.1104    0.0000 C   0  0  0  0  0  0  0  0  0  0  0  0
    7.2656   -0.1306    0.0000 C   0  0  0  0  0  0  0  0  0  0  0  0
    7.9981   -1.4396    0.0000 O   0  0  0  0  0  0  0  0  0  0  0  0
  1  2  1  0
  2  3  1  0
  3  4  2  3
  4  5  1  0
  5  6  2  0
  6  7  1  0
  6  8  1  0
  8  9  1  0
  9 10  1  0
 10 11  1  0
 11 12  1  0
 11 13  1  0
  2 14  2  3
 14 15  1  0
 15 16  2  3
 16 17  1  0
 17 18  1  0
 17 19  2  3
 19 20  1  0
 20 21  1  0
 11  5  1  0
M  END
> <Identifier>
445354.0

> <DILI>
0

$$$$

     RDKit          2D

 31 34  0  0  0  0  0  0  0  0999 V2000
   -7.9517    2.8263    0.0000 C   0  0  0  0  0  0  0  0  0  0  0  0
   -8.0194    1.3279    0.0000 N   0  0  0  0  0  0  0  0  0  0  0  0
   -9.2715    0.5019    0.0000 N   0  0  0  0  0  0  0  0  0  0  0  0
   -8.8729   -0.9442    0.0000 N   0  0  0  0  0  0  0  0  0  0  0  0
   -7.3744   -1.0119    0.0000 N   0  0  0  0  0  0  0  0  0  0  0  0
   -6.8470    0.3923    0.0000 C   0  0  0  0  0  0  0  0  0  0  0  0
   -5.4009    0.7910    0.0000 S   0  0  0  0  0  0  0  0  0  0  0  0
   -4.3326   -0.2620    0.0000 C   0  0  0  0  0  0  0  0  0  0  0  0
   -2.8866    0.1366    0.0000 C   0  0  0  0  0  0  0  0  0  0  0  0
   -1.8183   -0.9164    0.0000 C   0  0  0  0  0  0  0  0  0  0  0  0
   -2.1961   -2.3680    0.0000 C   0  0  0  0  0  0  0  0  0  0  0  0
   -3.6421   -2.7667    0.0000 O   0  0  0  0  0  0  0  0  0  0  0  0
   -1.1278   -3.4210    0.0000 O   0  0  0  0  0  0  0  0  0  0  0  0
   -0.3723   -0.5177    0.0000 N   0  0  0  0  0  0  0  0  0  0  0  0
    1.0794   -0.8955    0.0000 C   0  0  0  0  0  0  0  0  0  0  0  0
    1.8387   -2.1891    0.0000 O   0  0  0  0  0  0  0  0  0  0  0  0
    1.4572    0.5561    0.0000 C   0  0  0  0  0  0  0  0  0  0  0  0
    2.7508    1.3155    0.0000 N   0  0  0  0  0  0  0  0  0  0  0  0
    4.0552    0.5749    0.0000 C   0  0  0  0  0  0  0  0  0  0  0  0
    4.0660   -0.9251    0.0000 O   0  0  0  0  0  0  0  0  0  0  0  0
    5.3488    1.3342    0.0000 C   0  0  0  0  0  0  0  0  0  0  0  0
    5.3380    2.8342    0.0000 O   0  0  0  0  0  0  0  0  0  0  0  0
    6.6532    0.5936    0.0000 C   0  0  0  0  0  0  0  0  0  0  0  0
    6.6640   -0.9064    0.0000 C   0  0  0  0  0  0  0  0  0  0  0  0
    7.9684   -1.6470    0.0000 C   0  0  0  0  0  0  0  0  0  0  0  0
    9.2620   -0.8877    0.0000 C   0  0  0  0  0  0  0  0  0  0  0  0
    9.2512    0.6123    0.0000 C   0  0  0  0  0  0  0  0  0  0  0  0
    7.9468    1.3529    0.0000 C   0  0  0  0  0  0  0  0  0  0  0  0
    0.0055    0.9339    0.0000 C   0  0  0  0  0  0  0  0  0  0  0  0
   -1.0627    1.9869    0.0000 S   0  0  0  0  0  0  0  0  0  0  0  0
   -2.5088    1.5883    0.0000 C   0  0  0  0  0  0  0  0  0  0  0  0
  1  2  1  0
  2  3  1  0
  3  4  2  0
  4  5  1  0
  5  6  2  0
  6  7  1  0
  7  8  1  0
  8  9  1  0
  9 10  2  0
 10 11  1  0
 11 12  2  0
 11 13  1  0
 10 14  1  0
 14 15  1  0
 15 16  2  0
 15 17  1  0
 17 18  1  0
 18 19  1  0
 19 20  2  0
 19 21  1  0
 21 22  1  0
 21 23  1  0
 23 24  2  0
 24 25  1  0
 25 26  2  0
 26 27  1  0
 27 28  2  0
 17 29  1  0
 29 30  1  0
 30 31  1  0
  6  2  1  0
 31  9  1  0
 29 14  1  0
 28 23  1  0
M  END
> <Identifier>
456255.0

> <DILI>
1

$$$$

     RDKit          2D

 19 20  0  0  0  0  0  0  0  0999 V2000
   -2.4330    3.1097    0.0000 C   0  0  0  0  0  0  0  0  0  0  0  0
   -1.6084    1.8567    0.0000 C   0  0  0  0  0  0  0  0  0  0  0  0
   -0.1110    1.9443    0.0000 C   0  0  0  0  0  0  0  0  0  0  0  0
    0.7136    0.6913    0.0000 N   0  0  0  0  0  0  0  0  0  0  0  0
    0.1846   -0.7123    0.0000 C   0  0  0  0  0  0  0  0  0  0  0  0
    1.3561   -1.6492    0.0000 N   0  0  0  0  0  0  0  0  0  0  0  0
    2.6091   -0.8246    0.0000 C   0  0  0  0  0  0  0  0  0  0  0  0
    4.0603   -1.2040    0.0000 C   0  0  0  0  0  0  0  0  0  0  0  0
    4.4573   -2.6505    0.0000 N   0  0  0  0  0  0  0  0  0  0  0  0
    5.1145   -0.1369    0.0000 N   0  0  0  0  0  0  0  0  0  0  0  0
    4.7174    1.3096    0.0000 C   0  0  0  0  0  0  0  0  0  0  0  0
    3.2662    1.6890    0.0000 N   0  0  0  0  0  0  0  0  0  0  0  0
    2.2120    0.6219    0.0000 C   0  0  0  0  0  0  0  0  0  0  0  0
   -2.2812    0.5160    0.0000 O   0  0  0  0  0  0  0  0  0  0  0  0
   -3.7787    0.4284    0.0000 C   0  0  0  0  0  0  0  0  0  0  0  0
   -4.4515   -0.9122    0.0000 P   0  0  0  0  0  0  0  0  0  0  0  0
   -5.1244   -2.2528    0.0000 O   0  0  0  0  0  0  0  0  0  0  0  0
   -5.7921   -0.2394    0.0000 O   0  0  0  0  0  0  0  0  0  0  0  0
   -3.1109   -1.5850    0.0000 O   0  0  0  0  0  0  0  0  0  0  0  0
  1  2  1  0
  2  3  1  0
  3  4  1  0
  4  5  1  0
  5  6  2  0
  6  7  1  0
  7  8  2  0
  8  9  1  0
  8 10  1  0
 10 11  2  0
 11 12  1  0
 12 13  2  0
  2 14  1  0
 14 15  1  0
 15 16  1  0
 16 17  2  0
 16 18  1  0
 16 19  1  0
 13  4  1  0
 13  7  1  0
M  END
> <Identifier>
464205.0

> <DILI>
1

$$$$

     RDKit          2D

 36 39  0  0  0  0  0  0  0  0999 V2000
   -6.8794   -1.8811    0.0000 C   0  0  0  0  0  0  0  0  0  0  0  0
   -6.4697   -0.4382    0.0000 C   0  0  0  0  0  0  0  0  0  0  0  0
   -7.9476   -0.1816    0.0000 C   0  0  0  0  0  0  0  0  0  0  0  0
   -5.0774   -0.9964    0.0000 S   0  0  0  0  0  0  0  0  0  0  0  0
   -4.1163    0.1552    0.0000 C   0  0  0  0  0  0  0  0  0  0  0  0
   -2.8463    0.9534    0.0000 C   0  0  0  0  0  0  0  0  0  0  0  0
   -1.3839    0.6198    0.0000 N   0  0  0  0  0  0  0  0  0  0  0  0
   -0.9415   -0.8135    0.0000 C   0  0  0  0  0  0  0  0  0  0  0  0
   -1.9616   -1.9132    0.0000 O   0  0  0  0  0  0  0  0  0  0  0  0
    0.5209   -1.1471    0.0000 C   0  0  0  0  0  0  0  0  0  0  0  0
    1.5410   -0.0474    0.0000 N   0  0  0  0  0  0  0  0  0  0  0  0
    3.0035   -0.3810    0.0000 C   0  0  0  0  0  0  0  0  0  0  0  0
    3.4458   -1.8143    0.0000 O   0  0  0  0  0  0  0  0  0  0  0  0
    4.0236    0.7187    0.0000 N   0  0  0  0  0  0  0  0  0  0  0  0
    3.7335    2.1904    0.0000 C   0  0  0  0  0  0  0  0  0  0  0  0
    5.0435    2.9211    0.0000 C   0  0  0  0  0  0  0  0  0  0  0  0
    6.1432    1.9010    0.0000 N   0  0  0  0  0  0  0  0  0  0  0  0
    7.6149    2.1910    0.0000 S   0  0  0  0  0  0  0  0  0  0  0  0
    9.0866    2.4811    0.0000 C   0  0  0  0  0  0  0  0  0  0  0  0
    7.3248    3.6627    0.0000 O   0  0  0  0  0  0  0  0  0  0  0  0
    7.9050    0.7193    0.0000 O   0  0  0  0  0  0  0  0  0  0  0  0
    5.5129    0.5398    0.0000 C   0  0  0  0  0  0  0  0  0  0  0  0
    6.2435   -0.7702    0.0000 O   0  0  0  0  0  0  0  0  0  0  0  0
    0.9632   -2.5804    0.0000 C   0  0  0  0  0  0  0  0  0  0  0  0
   -0.0569   -3.6801    0.0000 C   0  0  0  0  0  0  0  0  0  0  0  0
    0.3854   -5.1134    0.0000 C   0  0  0  0  0  0  0  0  0  0  0  0
    1.8479   -5.4470    0.0000 C   0  0  0  0  0  0  0  0  0  0  0  0
    2.8680   -4.3473    0.0000 C   0  0  0  0  0  0  0  0  0  0  0  0
    2.4257   -2.9140    0.0000 C   0  0  0  0  0  0  0  0  0  0  0  0
   -3.6445    2.2234    0.0000 C   0  0  0  0  0  0  0  0  0  0  0  0
   -3.3109    3.6858    0.0000 O   0  0  0  0  0  0  0  0  0  0  0  0
   -4.9145    1.4251    0.0000 N   0  0  0  0  0  0  0  0  0  0  0  0
   -6.3690    1.0584    0.0000 C   0  0  0  0  0  0  0  0  0  0  0  0
   -7.5206    2.0196    0.0000 C   0  0  0  0  0  0  0  0  0  0  0  0
   -8.9288    1.5029    0.0000 O   0  0  0  0  0  0  0  0  0  0  0  0
   -7.2640    3.4975    0.0000 O   0  0  0  0  0  0  0  0  0  0  0  0
  1  2  1  0
  2  3  1  0
  2  4  1  0
  4  5  1  0
  5  6  1  0
  6  7  1  0
  7  8  1  0
  8  9  2  0
  8 10  1  0
 10 11  1  0
 11 12  1  0
 12 13  2  0
 12 14  1  0
 14 15  1  0
 15 16  1  0
 16 17  1  0
 17 18  1  0
 18 19  1  0
 18 20  2  0
 18 21  2  0
 17 22  1  0
 22 23  2  0
 10 24  1  0
 24 25  2  0
 25 26  1  0
 26 27  2  0
 27 28  1  0
 28 29  2  0
  6 30  1  0
 30 31  2  0
 30 32  1  0
 32 33  1  0
 33 34  1  0
 34 35  2  0
 34 36  1  0
 33  2  1  0
 32  5  1  0
 22 14  1  0
 29 24  1  0
M  END
> <Identifier>
656511.0

> <DILI>
1

$$$$

     RDKit          2D

 11 11  0  0  0  0  0  0  0  0999 V2000
   -4.5543   -0.1710    0.0000 C   0  0  0  0  0  0  0  0  0  0  0  0
   -3.1098    0.2333    0.0000 C   0  0  0  0  0  0  0  0  0  0  0  0
   -2.0374   -0.8155    0.0000 C   0  0  0  0  0  0  0  0  0  0  0  0
   -0.5929   -0.4112    0.0000 C   0  0  0  0  0  0  0  0  0  0  0  0
   -0.2208    1.0419    0.0000 C   0  0  0  0  0  0  0  0  0  0  0  0
    1.2237    1.4462    0.0000 C   0  0  0  0  0  0  0  0  0  0  0  0
    1.5958    2.8993    0.0000 O   0  0  0  0  0  0  0  0  0  0  0  0
    2.2961    0.3974    0.0000 N   0  0  0  0  0  0  0  0  0  0  0  0
    1.9239   -1.0557    0.0000 C   0  0  0  0  0  0  0  0  0  0  0  0
    2.9963   -2.1046    0.0000 S   0  0  0  0  0  0  0  0  0  0  0  0
    0.4794   -1.4600    0.0000 N   0  0  0  0  0  0  0  0  0  0  0  0
  1  2  1  0
  2  3  1  0
  3  4  1  0
  4  5  2  0
  5  6  1  0
  6  7  2  0
  6  8  1  0
  8  9  1  0
  9 10  2  0
  9 11  1  0
 11  4  1  0
M  END
> <Identifier>
657298.0

> <DILI>
1

$$$$

     RDKit          2D

 10 11  0  0  0  0  0  0  0  0999 V2000
    1.6198    2.3424    0.0000 S   0  0  0  0  0  0  0  0  0  0  0  0
    1.2034    0.9014    0.0000 C   0  0  0  0  0  0  0  0  0  0  0  0
    2.2432   -0.1798    0.0000 N   0  0  0  0  0  0  0  0  0  0  0  0
    1.8268   -1.6208    0.0000 C   0  0  0  0  0  0  0  0  0  0  0  0
    0.3706   -1.9807    0.0000 N   0  0  0  0  0  0  0  0  0  0  0  0
   -0.6692   -0.8996    0.0000 C   0  0  0  0  0  0  0  0  0  0  0  0
   -2.1684   -0.9489    0.0000 N   0  0  0  0  0  0  0  0  0  0  0  0
   -2.6786    0.4617    0.0000 C   0  0  0  0  0  0  0  0  0  0  0  0
   -1.4947    1.3828    0.0000 N   0  0  0  0  0  0  0  0  0  0  0  0
   -0.2528    0.5415    0.0000 C   0  0  0  0  0  0  0  0  0  0  0  0
  1  2  2  0
  2  3  1  0
  3  4  2  0
  4  5  1  0
  5  6  1  0
  6  7  1  0
  7  8  2  0
  8  9  1  0
  9 10  1  0
 10  2  1  0
 10  6  2  0
M  END
> <Identifier>
667490.0

> <DILI>
1

$$$$

     RDKit          2D

 14 15  0  0  0  0  0  0  0  0999 V2000
   -1.0622   -2.0814    0.0000 C   0  0  0  0  0  0  0  0  0  0  0  0
   -2.0341   -0.9388    0.0000 N   0  0  0  0  0  0  0  0  0  0  0  0
   -3.5095   -1.2093    0.0000 C   0  0  0  0  0  0  0  0  0  0  0  0
   -4.4814   -0.0667    0.0000 C   0  0  0  0  0  0  0  0  0  0  0  0
   -3.9779    1.3462    0.0000 C   0  0  0  0  0  0  0  0  0  0  0  0
   -2.5025    1.6167    0.0000 N   0  0  0  0  0  0  0  0  0  0  0  0
   -1.5306    0.4741    0.0000 C   0  0  0  0  0  0  0  0  0  0  0  0
   -0.0551    0.7446    0.0000 C   0  0  0  0  0  0  0  0  0  0  0  0
    0.9168   -0.3980    0.0000 C   0  0  0  0  0  0  0  0  0  0  0  0
    2.3922   -0.1275    0.0000 C   0  0  0  0  0  0  0  0  0  0  0  0
    3.0406    1.2251    0.0000 C   0  0  0  0  0  0  0  0  0  0  0  0
    4.5274    1.0263    0.0000 C   0  0  0  0  0  0  0  0  0  0  0  0
    4.7979   -0.4491    0.0000 C   0  0  0  0  0  0  0  0  0  0  0  0
    3.4782   -1.1622    0.0000 S   0  0  0  0  0  0  0  0  0  0  0  0
  1  2  1  0
  2  3  1  0
  3  4  1  0
  4  5  1  0
  5  6  1  0
  6  7  2  0
  7  8  1  0
  8  9  2  3
  9 10  1  0
 10 11  2  0
 11 12  1  0
 12 13  2  0
 13 14  1  0
  7  2  1  0
 14 10  1  0
M  END
> <Identifier>
708857.0

> <DILI>
0

$$$$

     RDKit          2D

 30 33  0  0  0  0  0  0  0  0999 V2000
   -6.9939   -1.6304    0.0000 C   0  0  0  0  0  0  0  0  0  0  0  0
   -5.5218   -1.9188    0.0000 N   0  0  0  0  0  0  0  0  0  0  0  0
   -4.5361   -0.7881    0.0000 C   0  0  0  0  0  0  0  0  0  0  0  0
   -3.0641   -1.0765    0.0000 C   0  0  0  0  0  0  0  0  0  0  0  0
   -2.5778   -2.4955    0.0000 N   0  0  0  0  0  0  0  0  0  0  0  0
   -1.1058   -2.7838    0.0000 C   0  0  0  0  0  0  0  0  0  0  0  0
   -0.1200   -1.6532    0.0000 C   0  0  0  0  0  0  0  0  0  0  0  0
    1.3520   -1.9416    0.0000 C   0  0  0  0  0  0  0  0  0  0  0  0
    2.3377   -0.8109    0.0000 C   0  0  0  0  0  0  0  0  0  0  0  0
    3.8097   -1.0993    0.0000 C   0  0  0  0  0  0  0  0  0  0  0  0
    4.2960   -2.5183    0.0000 C   0  0  0  0  0  0  0  0  0  0  0  0
    5.7680   -2.8066    0.0000 C   0  0  0  0  0  0  0  0  0  0  0  0
    6.7538   -1.6760    0.0000 C   0  0  0  0  0  0  0  0  0  0  0  0
    6.2675   -0.2570    0.0000 C   0  0  0  0  0  0  0  0  0  0  0  0
    4.7955    0.0313    0.0000 C   0  0  0  0  0  0  0  0  0  0  0  0
    4.3092    1.4503    0.0000 S   0  0  0  0  0  0  0  0  0  0  0  0
    2.8372    1.7387    0.0000 C   0  0  0  0  0  0  0  0  0  0  0  0
    2.3509    3.1577    0.0000 C   0  0  0  0  0  0  0  0  0  0  0  0
    0.8788    3.4460    0.0000 C   0  0  0  0  0  0  0  0  0  0  0  0
   -0.1069    2.3154    0.0000 C   0  0  0  0  0  0  0  0  0  0  0  0
   -1.5789    2.6038    0.0000 S   0  0  0  0  0  0  0  0  0  0  0  0
   -1.2906    4.0758    0.0000 O   0  0  0  0  0  0  0  0  0  0  0  0
   -1.8673    1.1317    0.0000 O   0  0  0  0  0  0  0  0  0  0  0  0
   -3.0509    2.8921    0.0000 N   0  0  0  0  0  0  0  0  0  0  0  0
   -4.0367    1.7615    0.0000 C   0  0  0  0  0  0  0  0  0  0  0  0
   -3.5372    4.3111    0.0000 C   0  0  0  0  0  0  0  0  0  0  0  0
    0.3794    0.8964    0.0000 C   0  0  0  0  0  0  0  0  0  0  0  0
    1.8514    0.6081    0.0000 C   0  0  0  0  0  0  0  0  0  0  0  0
   -3.5635   -3.6261    0.0000 C   0  0  0  0  0  0  0  0  0  0  0  0
   -5.0356   -3.3378    0.0000 C   0  0  0  0  0  0  0  0  0  0  0  0
  1  2  1  0
  2  3  1  0
  3  4  1  0
  4  5  1  0
  5  6  1  0
  6  7  1  0
  7  8  1  0
  8  9  2  3
  9 10  1  0
 10 11  2  0
 11 12  1  0
 12 13  2  0
 13 14  1  0
 14 15  2  0
 15 16  1  0
 16 17  1  0
 17 18  2  0
 18 19  1  0
 19 20  2  0
 20 21  1  0
 21 22  2  0
 21 23  2  0
 21 24  1  0
 24 25  1  0
 24 26  1  0
 20 27  1  0
 27 28  2  0
  5 29  1  0
 29 30  1  0
 30  2  1  0
 28  9  1  0
 15 10  1  0
 28 17  1  0
M  END
> <Identifier>
941651.0

> <DILI>
1

$$$$

     RDKit          2D

  7  7  0  0  0  0  0  0  0  0999 V2000
   -1.6042   -1.6317    0.0000 C   0  0  0  0  0  0  0  0  0  0  0  0
   -0.3906   -0.7500    0.0000 N   0  0  0  0  0  0  0  0  0  0  0  0
    1.0360   -1.2135    0.0000 C   0  0  0  0  0  0  0  0  0  0  0  0
    1.9176    0.0000    0.0000 C   0  0  0  0  0  0  0  0  0  0  0  0
    1.0360    1.2135    0.0000 N   0  0  0  0  0  0  0  0  0  0  0  0
   -0.3906    0.7500    0.0000 C   0  0  0  0  0  0  0  0  0  0  0  0
   -1.6042    1.6317    0.0000 S   0  0  0  0  0  0  0  0  0  0  0  0
  1  2  1  0
  2  3  1  0
  3  4  2  0
  4  5  1  0
  5  6  1  0
  6  7  2  0
  6  2  1  0
M  END
> <Identifier>
1349907.0

> <DILI>
1

$$$$

     RDKit          2D

 22 22  0  0  0  0  0  0  0  0999 V2000
    7.6106   -2.4005    0.0000 C   0  0  0  0  0  0  0  0  0  0  0  0
    7.6535   -0.9011    0.0000 O   0  0  0  0  0  0  0  0  0  0  0  0
    6.3764   -0.1142    0.0000 C   0  0  0  0  0  0  0  0  0  0  0  0
    5.0565   -0.8268    0.0000 C   0  0  0  0  0  0  0  0  0  0  0  0
    3.7794   -0.0399    0.0000 C   0  0  0  0  0  0  0  0  0  0  0  0
    2.4595   -0.7525    0.0000 C   0  0  0  0  0  0  0  0  0  0  0  0
    1.1824    0.0344    0.0000 N   0  0  0  0  0  0  0  0  0  0  0  0
   -0.1375   -0.6782    0.0000 C   0  0  0  0  0  0  0  0  0  0  0  0
   -0.1804   -2.1775    0.0000 O   0  0  0  0  0  0  0  0  0  0  0  0
   -1.4146    0.1087    0.0000 C   0  0  0  0  0  0  0  0  0  0  0  0
   -2.7346   -0.6039    0.0000 C   0  0  0  0  0  0  0  0  0  0  0  0
   -4.0116    0.1830    0.0000 C   0  0  0  0  0  0  0  0  0  0  0  0
   -5.3316   -0.5295    0.0000 C   0  0  0  0  0  0  0  0  0  0  0  0
   -6.6086    0.2573    0.0000 C   0  0  0  0  0  0  0  0  0  0  0  0
   -7.9286   -0.4552    0.0000 C   0  0  0  0  0  0  0  0  0  0  0  0
   -9.2056    0.3316    0.0000 C   0  0  0  0  0  0  0  0  0  0  0  0
  -10.5256   -0.3809    0.0000 C   0  0  0  0  0  0  0  0  0  0  0  0
   -9.1627    1.8310    0.0000 C   0  0  0  0  0  0  0  0  0  0  0  0
    3.8223    1.4595    0.0000 C   0  0  0  0  0  0  0  0  0  0  0  0
    5.1423    2.1720    0.0000 C   0  0  0  0  0  0  0  0  0  0  0  0
    6.4193    1.3851    0.0000 C   0  0  0  0  0  0  0  0  0  0  0  0
    7.7393    2.0977    0.0000 O   0  0  0  0  0  0  0  0  0  0  0  0
  1  2  1  0
  2  3  1  0
  3  4  2  0
  4  5  1  0
  5  6  1  0
  6  7  1  0
  7  8  1  0
  8  9  2  0
  8 10  1  0
 10 11  1  0
 11 12  1  0
 12 13  1  0
 13 14  1  0
 14 15  2  3
 15 16  1  0
 16 17  1  0
 16 18  1  0
  5 19  2  0
 19 20  1  0
 20 21  2  0
 21 22  1  0
 21  3  1  0
M  END
> <Identifier>
1548943.0

> <DILI>
0

$$$$

     RDKit          2D

 30 32  0  0  0  0  0  0  0  0999 V2000
    0.5713    4.5349    0.0000 C   0  0  0  0  0  0  0  0  0  0  0  0
    0.2472    3.0703    0.0000 C   0  0  0  0  0  0  0  0  0  0  0  0
   -1.1832    2.6186    0.0000 C   0  0  0  0  0  0  0  0  0  0  0  0
    1.3535    2.0573    0.0000 N   0  0  0  0  0  0  0  0  0  0  0  0
    1.1843    0.5669    0.0000 C   0  0  0  0  0  0  0  0  0  0  0  0
   -0.1209   -0.1722    0.0000 C   0  0  0  0  0  0  0  0  0  0  0  0
   -1.4137    0.5885    0.0000 C   0  0  0  0  0  0  0  0  0  0  0  0
   -2.7189   -0.1506    0.0000 C   0  0  0  0  0  0  0  0  0  0  0  0
   -2.7314   -1.6506    0.0000 O   0  0  0  0  0  0  0  0  0  0  0  0
   -4.0117    0.6102    0.0000 C   0  0  0  0  0  0  0  0  0  0  0  0
   -5.3169   -0.1290    0.0000 C   0  0  0  0  0  0  0  0  0  0  0  0
   -5.3294   -1.6289    0.0000 O   0  0  0  0  0  0  0  0  0  0  0  0
   -6.6097    0.6318    0.0000 C   0  0  0  0  0  0  0  0  0  0  0  0
   -7.9149   -0.1073    0.0000 C   0  0  0  0  0  0  0  0  0  0  0  0
   -7.9274   -1.6073    0.0000 O   0  0  0  0  0  0  0  0  0  0  0  0
   -9.2076    0.6535    0.0000 O   0  0  0  0  0  0  0  0  0  0  0  0
    2.5495   -0.0546    0.0000 C   0  0  0  0  0  0  0  0  0  0  0  0
    2.8491   -1.5244    0.0000 C   0  0  0  0  0  0  0  0  0  0  0  0
    1.7261   -2.5187    0.0000 C   0  0  0  0  0  0  0  0  0  0  0  0
    2.0257   -3.9885    0.0000 C   0  0  0  0  0  0  0  0  0  0  0  0
    3.4484   -4.4639    0.0000 C   0  0  0  0  0  0  0  0  0  0  0  0
    3.7480   -5.9337    0.0000 F   0  0  0  0  0  0  0  0  0  0  0  0
    4.5714   -3.4695    0.0000 C   0  0  0  0  0  0  0  0  0  0  0  0
    4.2718   -1.9997    0.0000 C   0  0  0  0  0  0  0  0  0  0  0  0
    3.5624    1.0517    0.0000 C   0  0  0  0  0  0  0  0  0  0  0  0
    5.0624    1.0392    0.0000 C   0  0  0  0  0  0  0  0  0  0  0  0
    5.8232    2.3320    0.0000 C   0  0  0  0  0  0  0  0  0  0  0  0
    5.0840    3.6372    0.0000 C   0  0  0  0  0  0  0  0  0  0  0  0
    3.5841    3.6497    0.0000 C   0  0  0  0  0  0  0  0  0  0  0  0
    2.8233    2.3570    0.0000 C   0  0  0  0  0  0  0  0  0  0  0  0
  1  2  1  0
  2  3  1  0
  2  4  1  0
  4  5  1  0
  5  6  1  0
  6  7  2  3
  7  8  1  0
  8  9  1  0
  8 10  1  0
 10 11  1  0
 11 12  1  0
 11 13  1  0
 13 14  1  0
 14 15  2  0
 14 16  1  0
  5 17  2  0
 17 18  1  0
 18 19  2  0
 19 20  1  0
 20 21  2  0
 21 22  1  0
 21 23  1  0
 23 24  2  0
 17 25  1  0
 25 26  2  0
 26 27  1  0
 27 28  2  0
 28 29  1  0
 29 30  2  0
 30  4  1  0
 24 18  1  0
 30 25  1  0
M  END
> <Identifier>
1548972.0

> <DILI>
0

$$$$

     RDKit          2D

 11 12  0  0  0  0  0  0  0  0999 V2000
    3.4185    1.0669    0.0000 N   0  0  0  0  0  0  0  0  0  0  0  0
    2.0102    0.5504    0.0000 C   0  0  0  0  0  0  0  0  0  0  0  0
    1.7535   -0.9275    0.0000 N   0  0  0  0  0  0  0  0  0  0  0  0
    0.3452   -1.4440    0.0000 C   0  0  0  0  0  0  0  0  0  0  0  0
    0.0884   -2.9219    0.0000 S   0  0  0  0  0  0  0  0  0  0  0  0
   -0.8063   -0.4827    0.0000 C   0  0  0  0  0  0  0  0  0  0  0  0
   -2.2911   -0.6952    0.0000 N   0  0  0  0  0  0  0  0  0  0  0  0
   -2.9521    0.6513    0.0000 C   0  0  0  0  0  0  0  0  0  0  0  0
   -1.8757    1.6960    0.0000 N   0  0  0  0  0  0  0  0  0  0  0  0
   -0.5495    0.9951    0.0000 C   0  0  0  0  0  0  0  0  0  0  0  0
    0.8588    1.5117    0.0000 N   0  0  0  0  0  0  0  0  0  0  0  0
  1  2  1  0
  2  3  2  0
  3  4  1  0
  4  5  2  0
  4  6  1  0
  6  7  1  0
  7  8  1  0
  8  9  2  0
  9 10  1  0
 10 11  1  0
 11  2  1  0
 10  6  2  0
M  END
> <Identifier>
2723601.0

> <DILI>
1

$$$$

     RDKit          2D

 28 30  0  0  0  0  0  0  0  0999 V2000
    2.8434   -3.7888    0.0000 C   0  0  0  0  0  0  0  0  0  0  0  0
    1.8298   -2.6830    0.0000 C   0  0  0  0  0  0  0  0  0  0  0  0
    2.2807   -1.2524    0.0000 C   0  0  0  0  0  0  0  0  0  0  0  0
    1.2672   -0.1466    0.0000 C   0  0  0  0  0  0  0  0  0  0  0  0
    1.7181    1.2840    0.0000 C   0  0  0  0  0  0  0  0  0  0  0  0
    3.1825    1.6089    0.0000 C   0  0  0  0  0  0  0  0  0  0  0  0
    3.6333    3.0395    0.0000 C   0  0  0  0  0  0  0  0  0  0  0  0
    2.6198    4.1453    0.0000 C   0  0  0  0  0  0  0  0  0  0  0  0
    1.1554    3.8205    0.0000 C   0  0  0  0  0  0  0  0  0  0  0  0
    0.7045    2.3898    0.0000 C   0  0  0  0  0  0  0  0  0  0  0  0
   -0.1972   -0.4714    0.0000 C   0  0  0  0  0  0  0  0  0  0  0  0
   -1.2108    0.6343    0.0000 C   0  0  0  0  0  0  0  0  0  0  0  0
   -2.6752    0.3095    0.0000 C   0  0  0  0  0  0  0  0  0  0  0  0
   -3.1260   -1.1211    0.0000 C   0  0  0  0  0  0  0  0  0  0  0  0
   -4.5904   -1.4460    0.0000 O   0  0  0  0  0  0  0  0  0  0  0  0
   -5.6040   -0.3402    0.0000 C   0  0  0  0  0  0  0  0  0  0  0  0
   -7.0684   -0.6651    0.0000 C   0  0  0  0  0  0  0  0  0  0  0  0
   -8.0819    0.4407    0.0000 N   0  0  0  0  0  0  0  0  0  0  0  0
   -9.5463    0.1159    0.0000 C   0  0  0  0  0  0  0  0  0  0  0  0
   -7.6310    1.8714    0.0000 C   0  0  0  0  0  0  0  0  0  0  0  0
   -2.1125   -2.2269    0.0000 C   0  0  0  0  0  0  0  0  0  0  0  0
   -0.6481   -1.9021    0.0000 C   0  0  0  0  0  0  0  0  0  0  0  0
    3.7451   -0.9275    0.0000 C   0  0  0  0  0  0  0  0  0  0  0  0
    4.7586   -2.0333    0.0000 C   0  0  0  0  0  0  0  0  0  0  0  0
    6.2230   -1.7085    0.0000 C   0  0  0  0  0  0  0  0  0  0  0  0
    6.6739   -0.2778    0.0000 C   0  0  0  0  0  0  0  0  0  0  0  0
    5.6604    0.8279    0.0000 C   0  0  0  0  0  0  0  0  0  0  0  0
    4.1960    0.5031    0.0000 C   0  0  0  0  0  0  0  0  0  0  0  0
  1  2  1  0
  2  3  1  0
  3  4  2  3
  4  5  1  0
  5  6  2  0
  6  7  1  0
  7  8  2  0
  8  9  1  0
  9 10  2  0
  4 11  1  0
 11 12  2  0
 12 13  1  0
 13 14  2  0
 14 15  1  0
 15 16  1  0
 16 17  1  0
 17 18  1  0
 18 19  1  0
 18 20  1  0
 14 21  1  0
 21 22  2  0
  3 23  1  0
 23 24  2  0
 24 25  1  0
 25 26  2  0
 26 27  1  0
 27 28  2  0
 10  5  1  0
 22 11  1  0
 28 23  1  0
M  END
> <Identifier>
2733526.0

> <DILI>
1

$$$$

     RDKit          2D

 93 95  0  0  0  0  0  0  0  0999 V2000
    2.4099   -5.0174    0.0000 C   0  0  0  0  0  0  0  0  0  0  0  0
    1.3176   -3.9894    0.0000 C   0  0  0  0  0  0  0  0  0  0  0  0
    0.0963   -4.8601    0.0000 N   0  0  0  0  0  0  0  0  0  0  0  0
   -1.3654   -5.1972    0.0000 C   0  0  0  0  0  0  0  0  0  0  0  0
   -1.3200   -6.6965    0.0000 O   0  0  0  0  0  0  0  0  0  0  0  0
   -2.8447   -4.9492    0.0000 C   0  0  0  0  0  0  0  0  0  0  0  0
   -3.3765   -6.3518    0.0000 N   0  0  0  0  0  0  0  0  0  0  0  0
   -4.1166   -4.1540    0.0000 C   0  0  0  0  0  0  0  0  0  0  0  0
   -4.9874   -2.9326    0.0000 N   0  0  0  0  0  0  0  0  0  0  0  0
   -5.3244   -1.4710    0.0000 C   0  0  0  0  0  0  0  0  0  0  0  0
   -6.8237   -1.5164    0.0000 O   0  0  0  0  0  0  0  0  0  0  0  0
   -5.0765    0.0084    0.0000 C   0  0  0  0  0  0  0  0  0  0  0  0
   -6.4790    0.5402    0.0000 C   0  0  0  0  0  0  0  0  0  0  0  0
   -6.7198    2.0207    0.0000 C   0  0  0  0  0  0  0  0  0  0  0  0
   -8.1224    2.5525    0.0000 C   0  0  0  0  0  0  0  0  0  0  0  0
   -9.2842    1.6038    0.0000 N   0  0  0  0  0  0  0  0  0  0  0  0
   -9.0434    0.1232    0.0000 C   0  0  0  0  0  0  0  0  0  0  0  0
  -10.2053   -0.8256    0.0000 N   0  0  0  0  0  0  0  0  0  0  0  0
   -7.6409   -0.4086    0.0000 N   0  0  0  0  0  0  0  0  0  0  0  0
   -4.2813    1.2803    0.0000 N   0  0  0  0  0  0  0  0  0  0  0  0
   -3.0599    2.1510    0.0000 C   0  0  0  0  0  0  0  0  0  0  0  0
   -3.6756    3.5188    0.0000 O   0  0  0  0  0  0  0  0  0  0  0  0
   -1.5982    2.4881    0.0000 C   0  0  0  0  0  0  0  0  0  0  0  0
   -1.6437    3.9874    0.0000 C   0  0  0  0  0  0  0  0  0  0  0  0
   -0.3679    4.7764    0.0000 N   0  0  0  0  0  0  0  0  0  0  0  0
   -0.4134    6.2757    0.0000 C   0  0  0  0  0  0  0  0  0  0  0  0
    0.8624    7.0647    0.0000 N   0  0  0  0  0  0  0  0  0  0  0  0
   -1.7345    6.9860    0.0000 O   0  0  0  0  0  0  0  0  0  0  0  0
   -0.1189    2.2401    0.0000 N   0  0  0  0  0  0  0  0  0  0  0  0
    1.1530    1.4449    0.0000 C   0  0  0  0  0  0  0  0  0  0  0  0
    2.1810    2.5372    0.0000 O   0  0  0  0  0  0  0  0  0  0  0  0
    2.0237    0.2235    0.0000 C   0  0  0  0  0  0  0  0  0  0  0  0
    3.3915    0.8393    0.0000 C   0  0  0  0  0  0  0  0  0  0  0  0
    4.6087   -0.0374    0.0000 N   0  0  0  0  0  0  0  0  0  0  0  0
    5.9765    0.5783    0.0000 C   0  0  0  0  0  0  0  0  0  0  0  0
    6.1271    2.0707    0.0000 O   0  0  0  0  0  0  0  0  0  0  0  0
    7.1936   -0.2984    0.0000 C   0  0  0  0  0  0  0  0  0  0  0  0
    8.5614    0.3174    0.0000 C   0  0  0  0  0  0  0  0  0  0  0  0
    8.7121    1.8098    0.0000 N   0  0  0  0  0  0  0  0  0  0  0  0
    9.7786   -0.5593    0.0000 C   0  0  0  0  0  0  0  0  0  0  0  0
   11.1464    0.0564    0.0000 C   0  0  0  0  0  0  0  0  0  0  0  0
   12.3635   -0.8203    0.0000 C   0  0  0  0  0  0  0  0  0  0  0  0
   13.7313   -0.2045    0.0000 N   0  0  0  0  0  0  0  0  0  0  0  0
    2.3608   -1.2381    0.0000 N   0  0  0  0  0  0  0  0  0  0  0  0
    2.1129   -2.7175    0.0000 C   0  0  0  0  0  0  0  0  0  0  0  0
    3.5154   -3.2493    0.0000 O   0  0  0  0  0  0  0  0  0  0  0  0
  -13.6871   15.1774    0.0000 N   0  0  0  0  0  0  0  0  0  0  0  0
  -12.3269   15.8097    0.0000 C   0  0  0  0  0  0  0  0  0  0  0  0
  -11.0992   14.9478    0.0000 C   0  0  0  0  0  0  0  0  0  0  0  0
   -9.7390   15.5801    0.0000 C   0  0  0  0  0  0  0  0  0  0  0  0
   -8.5113   14.7182    0.0000 C   0  0  0  0  0  0  0  0  0  0  0  0
   -8.6439   13.2241    0.0000 N   0  0  0  0  0  0  0  0  0  0  0  0
   -7.1511   15.3505    0.0000 C   0  0  0  0  0  0  0  0  0  0  0  0
   -5.9234   14.4886    0.0000 C   0  0  0  0  0  0  0  0  0  0  0  0
   -6.0560   12.9945    0.0000 O   0  0  0  0  0  0  0  0  0  0  0  0
   -4.5632   15.1209    0.0000 N   0  0  0  0  0  0  0  0  0  0  0  0
   -3.3355   14.2590    0.0000 C   0  0  0  0  0  0  0  0  0  0  0  0
   -1.9753   14.8913    0.0000 C   0  0  0  0  0  0  0  0  0  0  0  0
   -2.3300   16.3487    0.0000 N   0  0  0  0  0  0  0  0  0  0  0  0
   -2.1000   17.8310    0.0000 C   0  0  0  0  0  0  0  0  0  0  0  0
   -3.5089   18.3457    0.0000 O   0  0  0  0  0  0  0  0  0  0  0  0
   -1.3203   19.1124    0.0000 C   0  0  0  0  0  0  0  0  0  0  0  0
   -2.4249   20.1271    0.0000 C   0  0  0  0  0  0  0  0  0  0  0  0
   -2.0985   21.5912    0.0000 O   0  0  0  0  0  0  0  0  0  0  0  0
   -0.1095   19.9979    0.0000 N   0  0  0  0  0  0  0  0  0  0  0  0
    1.3479   20.3526    0.0000 C   0  0  0  0  0  0  0  0  0  0  0  0
    1.2843   21.8513    0.0000 O   0  0  0  0  0  0  0  0  0  0  0  0
    2.8302   20.1226    0.0000 C   0  0  0  0  0  0  0  0  0  0  0  0
    3.3450   21.5315    0.0000 N   0  0  0  0  0  0  0  0  0  0  0  0
    4.1116   19.3429    0.0000 C   0  0  0  0  0  0  0  0  0  0  0  0
    4.9971   18.1321    0.0000 N   0  0  0  0  0  0  0  0  0  0  0  0
    5.3518   16.6747    0.0000 C   0  0  0  0  0  0  0  0  0  0  0  0
    6.8505   16.7383    0.0000 O   0  0  0  0  0  0  0  0  0  0  0  0
    5.1218   15.1924    0.0000 C   0  0  0  0  0  0  0  0  0  0  0  0
    6.5307   14.6777    0.0000 C   0  0  0  0  0  0  0  0  0  0  0  0
    6.7894   13.2001    0.0000 C   0  0  0  0  0  0  0  0  0  0  0  0
    8.1983   12.6854    0.0000 C   0  0  0  0  0  0  0  0  0  0  0  0
    9.3486   13.6481    0.0000 N   0  0  0  0  0  0  0  0  0  0  0  0
    9.0899   15.1257    0.0000 C   0  0  0  0  0  0  0  0  0  0  0  0
   10.2401   16.0884    0.0000 N   0  0  0  0  0  0  0  0  0  0  0  0
    7.6810   15.6404    0.0000 N   0  0  0  0  0  0  0  0  0  0  0  0
    4.3421   13.9110    0.0000 N   0  0  0  0  0  0  0  0  0  0  0  0
    3.1313   13.0255    0.0000 C   0  0  0  0  0  0  0  0  0  0  0  0
    3.7636   11.6653    0.0000 O   0  0  0  0  0  0  0  0  0  0  0  0
    1.6739   12.6708    0.0000 C   0  0  0  0  0  0  0  0  0  0  0  0
    1.7375   11.1721    0.0000 C   0  0  0  0  0  0  0  0  0  0  0  0
    0.4714   10.3677    0.0000 N   0  0  0  0  0  0  0  0  0  0  0  0
    0.5350    8.8691    0.0000 C   0  0  0  0  0  0  0  0  0  0  0  0
   -0.7311    8.0647    0.0000 N   0  0  0  0  0  0  0  0  0  0  0  0
    1.8647    8.1748    0.0000 O   0  0  0  0  0  0  0  0  0  0  0  0
    0.1916   12.9008    0.0000 N   0  0  0  0  0  0  0  0  0  0  0  0
   -1.0898   13.6805    0.0000 C   0  0  0  0  0  0  0  0  0  0  0  0
   -2.1045   12.5758    0.0000 O   0  0  0  0  0  0  0  0  0  0  0  0
  1  2  1  0
  2  3  1  0
  3  4  1  0
  4  5  2  0
  4  6  1  0
  6  7  1  0
  6  8  1  0
  8  9  1  0
  9 10  1  0
 10 11  2  0
 10 12  1  0
 12 13  1  0
 13 14  1  0
 14 15  1  0
 15 16  1  0
 16 17  2  0
 17 18  1  0
 17 19  1  0
 12 20  1  0
 20 21  1  0
 21 22  2  0
 21 23  1  0
 23 24  2  3
 24 25  1  0
 25 26  1  0
 26 27  1  0
 26 28  2  0
 23 29  1  0
 29 30  1  0
 30 31  2  0
 30 32  1  0
 32 33  1  0
 33 34  1  0
 34 35  1  0
 35 36  2  0
 35 37  1  0
 37 38  1  0
 38 39  1  0
 38 40  1  0
 40 41  1  0
 41 42  1  0
 42 43  1  0
 32 44  1  0
 44 45  1  0
 45 46  2  0
 47 48  1  0
 48 49  1  0
 49 50  1  0
 50 51  1  0
 51 52  1  0
 51 53  1  0
 53 54  1  0
 54 55  2  0
 54 56  1  0
 56 57  1  0
 57 58  1  0
 58 59  1  0
 59 60  1  0
 60 61  2  0
 60 62  1  0
 62 63  1  0
 63 64  1  0
 62 65  1  0
 65 66  1  0
 66 67  2  0
 66 68  1  0
 68 69  1  0
 68 70  1  0
 70 71  1  0
 71 72  1  0
 72 73  2  0
 72 74  1  0
 74 75  1  0
 75 76  1  0
 76 77  1  0
 77 78  1  0
 78 79  2  0
 79 80  1  0
 79 81  1  0
 74 82  1  0
 82 83  1  0
 83 84  2  0
 83 85  1  0
 85 86  2  3
 86 87  1  0
 87 88  1  0
 88 89  1  0
 88 90  2  0
 85 91  1  0
 91 92  1  0
 92 93  2  0
 45  2  1  0
 92 58  1  0
 19 13  1  0
 81 75  1  0
M  END
> <Identifier>
3000502.0

> <DILI>
0

$$$$

     RDKit          2D

 42 46  0  0  0  0  0  0  0  0999 V2000
    1.2415   -4.2515    0.0000 C   0  0  0  0  0  0  0  0  0  0  0  0
    0.9535   -2.7794    0.0000 C   0  0  0  0  0  0  0  0  0  0  0  0
   -0.4654   -2.2927    0.0000 C   0  0  0  0  0  0  0  0  0  0  0  0
   -0.7534   -0.8206    0.0000 C   0  0  0  0  0  0  0  0  0  0  0  0
   -2.1723   -0.3340    0.0000 N   0  0  0  0  0  0  0  0  0  0  0  0
   -3.3031   -1.3195    0.0000 C   0  0  0  0  0  0  0  0  0  0  0  0
   -3.0152   -2.7916    0.0000 O   0  0  0  0  0  0  0  0  0  0  0  0
   -4.7220   -0.8328    0.0000 C   0  0  0  0  0  0  0  0  0  0  0  0
   -5.8529   -1.8183    0.0000 C   0  0  0  0  0  0  0  0  0  0  0  0
   -5.5649   -3.2904    0.0000 O   0  0  0  0  0  0  0  0  0  0  0  0
   -7.2718   -1.3317    0.0000 C   0  0  0  0  0  0  0  0  0  0  0  0
   -7.5598    0.1404    0.0000 C   0  0  0  0  0  0  0  0  0  0  0  0
   -8.9786    0.6271    0.0000 C   0  0  0  0  0  0  0  0  0  0  0  0
  -10.1095   -0.3584    0.0000 C   0  0  0  0  0  0  0  0  0  0  0  0
   -9.8215   -1.8305    0.0000 C   0  0  0  0  0  0  0  0  0  0  0  0
   -8.4026   -2.3171    0.0000 C   0  0  0  0  0  0  0  0  0  0  0  0
   -5.0100    0.6393    0.0000 N   0  0  0  0  0  0  0  0  0  0  0  0
   -3.8791    1.6247    0.0000 C   0  0  0  0  0  0  0  0  0  0  0  0
   -4.1671    3.0968    0.0000 O   0  0  0  0  0  0  0  0  0  0  0  0
   -2.4603    1.1381    0.0000 C   0  0  0  0  0  0  0  0  0  0  0  0
   -1.0414    0.6515    0.0000 C   0  0  0  0  0  0  0  0  0  0  0  0
    0.0895    1.6369    0.0000 C   0  0  0  0  0  0  0  0  0  0  0  0
   -0.1985    3.1090    0.0000 N   0  0  0  0  0  0  0  0  0  0  0  0
    0.9323    4.0945    0.0000 C   0  0  0  0  0  0  0  0  0  0  0  0
    2.3512    3.6078    0.0000 C   0  0  0  0  0  0  0  0  0  0  0  0
    2.6392    2.1357    0.0000 C   0  0  0  0  0  0  0  0  0  0  0  0
    4.0581    1.6491    0.0000 C   0  0  0  0  0  0  0  0  0  0  0  0
    5.1889    2.6346    0.0000 C   0  0  0  0  0  0  0  0  0  0  0  0
    6.6078    2.1479    0.0000 O   0  0  0  0  0  0  0  0  0  0  0  0
    6.8958    0.6758    0.0000 C   0  0  0  0  0  0  0  0  0  0  0  0
    5.7649   -0.3096    0.0000 C   0  0  0  0  0  0  0  0  0  0  0  0
    6.0529   -1.7817    0.0000 C   0  0  0  0  0  0  0  0  0  0  0  0
    7.4718   -2.2683    0.0000 C   0  0  0  0  0  0  0  0  0  0  0  0
    7.7598   -3.7404    0.0000 C   0  0  0  0  0  0  0  0  0  0  0  0
    9.1787   -4.2271    0.0000 O   0  0  0  0  0  0  0  0  0  0  0  0
    6.6289   -4.7259    0.0000 O   0  0  0  0  0  0  0  0  0  0  0  0
    8.6027   -1.2829    0.0000 C   0  0  0  0  0  0  0  0  0  0  0  0
    8.3147    0.1892    0.0000 C   0  0  0  0  0  0  0  0  0  0  0  0
    4.9009    4.1067    0.0000 C   0  0  0  0  0  0  0  0  0  0  0  0
    3.4821    4.5933    0.0000 C   0  0  0  0  0  0  0  0  0  0  0  0
   -1.6174    3.5956    0.0000 C   0  0  0  0  0  0  0  0  0  0  0  0
   -2.7483    2.6102    0.0000 C   0  0  0  0  0  0  0  0  0  0  0  0
  1  2  1  0
  2  3  1  0
  3  4  1  0
  4  5  1  0
  5  6  1  0
  6  7  2  0
  6  8  1  0
  8  9  1  0
  9 10  1  0
  9 11  1  0
 11 12  1  0
 12 13  1  0
 13 14  1  0
 14 15  1  0
 15 16  1  0
  8 17  1  0
 17 18  1  0
 18 19  2  0
 18 20  1  0
 20 21  1  0
 21 22  1  0
 22 23  1  0
 23 24  1  0
 24 25  1  0
 25 26  2  0
 26 27  1  0
 27 28  2  0
 28 29  1  0
 29 30  1  0
 30 31  2  0
 31 32  1  0
 32 33  2  0
 33 34  1  0
 34 35  2  0
 34 36  1  0
 33 37  1  0
 37 38  2  0
 28 39  1  0
 39 40  2  0
 23 41  1  0
 41 42  1  0
 20  5  1  0
 40 25  1  0
 16 11  1  0
 42 20  1  0
 38 30  1  0
M  END
> <Identifier>
3001322.0

> <DILI>
1

$$$$

     RDKit          2D

 30 32  0  0  0  0  0  0  0  0999 V2000
    9.5519   -2.4963    0.0000 C   0  0  0  0  0  0  0  0  0  0  0  0
    8.4501   -1.4785    0.0000 N   0  0  0  0  0  0  0  0  0  0  0  0
    7.0177   -1.9237    0.0000 C   0  0  0  0  0  0  0  0  0  0  0  0
    8.7807   -0.0154    0.0000 C   0  0  0  0  0  0  0  0  0  0  0  0
    7.6789    1.0025    0.0000 C   0  0  0  0  0  0  0  0  0  0  0  0
    7.8548    2.4922    0.0000 C   0  0  0  0  0  0  0  0  0  0  0  0
    6.4924    3.1198    0.0000 C   0  0  0  0  0  0  0  0  0  0  0  0
    5.4745    2.0180    0.0000 C   0  0  0  0  0  0  0  0  0  0  0  0
    3.9849    2.1938    0.0000 C   0  0  0  0  0  0  0  0  0  0  0  0
    3.0877    0.9917    0.0000 S   0  0  0  0  0  0  0  0  0  0  0  0
    1.5981    1.1675    0.0000 C   0  0  0  0  0  0  0  0  0  0  0  0
    0.7009   -0.0346    0.0000 C   0  0  0  0  0  0  0  0  0  0  0  0
   -0.7887    0.1413    0.0000 N   0  0  0  0  0  0  0  0  0  0  0  0
   -1.6858   -1.0609    0.0000 C   0  0  0  0  0  0  0  0  0  0  0  0
   -1.0933   -2.4389    0.0000 C   0  0  0  0  0  0  0  0  0  0  0  0
    0.3963   -2.6148    0.0000 N   0  0  0  0  0  4  0  0  0  0  0  0
    1.2935   -1.4126    0.0000 O   0  0  0  0  0  0  0  0  0  0  0  0
    0.9889   -3.9928    0.0000 O   0  0  0  0  0  1  0  0  0  0  0  0
   -3.1755   -0.8850    0.0000 N   0  0  0  0  0  0  0  0  0  0  0  0
   -3.7680    0.4930    0.0000 C   0  0  0  0  0  0  0  0  0  0  0  0
   -5.2577    0.6689    0.0000 C   0  0  0  0  0  0  0  0  0  0  0  0
   -5.8502    2.0469    0.0000 C   0  0  0  0  0  0  0  0  0  0  0  0
   -7.3399    2.2227    0.0000 C   0  0  0  0  0  0  0  0  0  0  0  0
   -8.2370    1.0206    0.0000 C   0  0  0  0  0  0  0  0  0  0  0  0
   -7.6445   -0.3574    0.0000 C   0  0  0  0  0  0  0  0  0  0  0  0
   -6.1548   -0.5333    0.0000 C   0  0  0  0  0  0  0  0  0  0  0  0
   -8.7719   -1.3468    0.0000 O   0  0  0  0  0  0  0  0  0  0  0  0
  -10.0613   -0.5802    0.0000 C   0  0  0  0  0  0  0  0  0  0  0  0
   -9.7306    0.8829    0.0000 O   0  0  0  0  0  0  0  0  0  0  0  0
    6.2078    0.7094    0.0000 O   0  0  0  0  0  0  0  0  0  0  0  0
  1  2  1  0
  2  3  1  0
  2  4  1  0
  4  5  1  0
  5  6  2  0
  6  7  1  0
  7  8  2  0
  8  9  1  0
  9 10  1  0
 10 11  1  0
 11 12  1  0
 12 13  1  0
 13 14  1  0
 14 15  2  3
 15 16  1  0
 16 17  2  0
 16 18  1  0
 14 19  1  0
 19 20  1  0
 20 21  1  0
 21 22  2  0
 22 23  1  0
 23 24  2  0
 24 25  1  0
 25 26  2  0
 25 27  1  0
 27 28  1  0
 28 29  1  0
  8 30  1  0
 30  5  1  0
 26 21  1  0
 29 24  1  0
M  CHG  2  16   1  18  -1
M  END
> <Identifier>
3033952.0

> <DILI>
1

$$$$

     RDKit          2D

 35 35  0  0  0  0  0  0  0  0999 V2000
  -12.3202   -3.6818    0.0000 C   0  0  0  0  0  0  0  0  0  0  0  0
  -11.1851   -2.7011    0.0000 C   0  0  0  0  0  0  0  0  0  0  0  0
   -9.7683   -3.1938    0.0000 C   0  0  0  0  0  0  0  0  0  0  0  0
   -8.6333   -2.2131    0.0000 C   0  0  0  0  0  0  0  0  0  0  0  0
   -7.2165   -2.7057    0.0000 C   0  0  0  0  0  0  0  0  0  0  0  0
   -6.0815   -1.7251    0.0000 C   0  0  0  0  0  0  0  0  0  0  0  0
   -4.6647   -2.2177    0.0000 C   0  0  0  0  0  0  0  0  0  0  0  0
   -3.5296   -1.2371    0.0000 C   0  0  0  0  0  0  0  0  0  0  0  0
   -2.1128   -1.7297    0.0000 C   0  0  0  0  0  0  0  0  0  0  0  0
   -0.9778   -0.7491    0.0000 C   0  0  0  0  0  0  0  0  0  0  0  0
    0.4390   -1.2417    0.0000 C   0  0  0  0  0  0  0  0  0  0  0  0
    1.5740   -0.2611    0.0000 C   0  0  0  0  0  0  0  0  0  0  0  0
    2.9908   -0.7537    0.0000 C   0  0  0  0  0  0  0  0  0  0  0  0
    4.1259    0.2269    0.0000 C   0  0  0  0  0  0  0  0  0  0  0  0
    4.2350    1.7230    0.0000 O   0  0  0  0  0  0  0  0  0  0  0  0
    5.7311    1.6138    0.0000 C   0  0  0  0  0  0  0  0  0  0  0  0
    6.8661    2.5944    0.0000 O   0  0  0  0  0  0  0  0  0  0  0  0
    5.6219    0.1178    0.0000 C   0  0  0  0  0  0  0  0  0  0  0  0
    6.6025   -1.0173    0.0000 C   0  0  0  0  0  0  0  0  0  0  0  0
    6.1099   -2.4341    0.0000 C   0  0  0  0  0  0  0  0  0  0  0  0
    7.0906   -3.5691    0.0000 C   0  0  0  0  0  0  0  0  0  0  0  0
    6.5979   -4.9859    0.0000 C   0  0  0  0  0  0  0  0  0  0  0  0
    7.5786   -6.1209    0.0000 C   0  0  0  0  0  0  0  0  0  0  0  0
    7.0859   -7.5377    0.0000 C   0  0  0  0  0  0  0  0  0  0  0  0
    1.2923    1.2122    0.0000 O   0  0  0  0  0  0  0  0  0  0  0  0
   -0.1245    1.7049    0.0000 C   0  0  0  0  0  0  0  0  0  0  0  0
   -1.2595    0.7242    0.0000 O   0  0  0  0  0  0  0  0  0  0  0  0
   -0.4063    3.1782    0.0000 C   0  0  0  0  0  0  0  0  0  0  0  0
   -1.8231    3.6708    0.0000 C   0  0  0  0  0  0  0  0  0  0  0  0
   -2.1048    5.1441    0.0000 C   0  0  0  0  0  0  0  0  0  0  0  0
   -3.5216    5.6368    0.0000 C   0  0  0  0  0  0  0  0  0  0  0  0
   -0.9698    6.1248    0.0000 C   0  0  0  0  0  0  0  0  0  0  0  0
    0.7288    4.1588    0.0000 N   0  0  0  0  0  0  0  0  0  0  0  0
    0.4470    5.6321    0.0000 C   0  0  0  0  0  0  0  0  0  0  0  0
    1.5821    6.6128    0.0000 O   0  0  0  0  0  0  0  0  0  0  0  0
  1  2  1  0
  2  3  1  0
  3  4  1  0
  4  5  1  0
  5  6  1  0
  6  7  1  0
  7  8  1  0
  8  9  1  0
  9 10  1  0
 10 11  1  0
 11 12  1  0
 12 13  1  0
 13 14  1  0
 14 15  1  0
 15 16  1  0
 16 17  2  0
 16 18  1  0
 18 19  1  0
 19 20  1  0
 20 21  1  0
 21 22  1  0
 22 23  1  0
 23 24  1  0
 12 25  1  0
 25 26  1  0
 26 27  2  0
 26 28  1  0
 28 29  1  0
 29 30  1  0
 30 31  1  0
 30 32  1  0
 28 33  1  0
 33 34  1  0
 34 35  2  0
 18 14  1  0
M  END
> <Identifier>
3034010.0

> <DILI>
1

$$$$

     RDKit          2D

 25 26  0  0  0  0  0  0  0  0999 V2000
   -8.2979   -1.7805    0.0000 C   0  0  0  0  0  0  0  0  0  0  0  0
   -6.8234   -2.0559    0.0000 O   0  0  0  0  0  0  0  0  0  0  0  0
   -5.8477   -0.9166    0.0000 C   0  0  0  0  0  0  0  0  0  0  0  0
   -6.3464    0.4980    0.0000 C   0  0  0  0  0  0  0  0  0  0  0  0
   -5.3707    1.6373    0.0000 C   0  0  0  0  0  0  0  0  0  0  0  0
   -3.8962    1.3619    0.0000 C   0  0  0  0  0  0  0  0  0  0  0  0
   -2.9205    2.5012    0.0000 C   0  0  0  0  0  0  0  0  0  0  0  0
   -1.4460    2.2259    0.0000 C   0  0  0  0  0  0  0  0  0  0  0  0
   -0.4702    3.3651    0.0000 C   0  0  0  0  0  0  0  0  0  0  0  0
   -0.9472    0.8112    0.0000 N   0  0  0  0  0  0  0  0  0  0  0  0
    0.5273    0.5358    0.0000 C   0  0  0  0  0  0  0  0  0  0  0  0
    1.0261   -0.8788    0.0000 C   0  0  0  0  0  0  0  0  0  0  0  0
    0.0504   -2.0181    0.0000 O   0  0  0  0  0  0  0  0  0  0  0  0
    2.5006   -1.1542    0.0000 C   0  0  0  0  0  0  0  0  0  0  0  0
    2.9994   -2.5688    0.0000 C   0  0  0  0  0  0  0  0  0  0  0  0
    4.4739   -2.8442    0.0000 C   0  0  0  0  0  0  0  0  0  0  0  0
    5.4496   -1.7049    0.0000 C   0  0  0  0  0  0  0  0  0  0  0  0
    6.9241   -1.9803    0.0000 O   0  0  0  0  0  0  0  0  0  0  0  0
    4.9509   -0.2903    0.0000 C   0  0  0  0  0  0  0  0  0  0  0  0
    5.9266    0.8490    0.0000 N   0  0  0  0  0  0  0  0  0  0  0  0
    5.4278    2.2636    0.0000 C   0  0  0  0  0  0  0  0  0  0  0  0
    6.4035    3.4029    0.0000 O   0  0  0  0  0  0  0  0  0  0  0  0
    3.4763   -0.0149    0.0000 C   0  0  0  0  0  0  0  0  0  0  0  0
   -3.3974   -0.0527    0.0000 C   0  0  0  0  0  0  0  0  0  0  0  0
   -4.3731   -1.1920    0.0000 C   0  0  0  0  0  0  0  0  0  0  0  0
  1  2  1  0
  2  3  1  0
  3  4  2  0
  4  5  1  0
  5  6  2  0
  6  7  1  0
  7  8  1  0
  8  9  1  0
  8 10  1  0
 10 11  1  0
 11 12  1  0
 12 13  1  0
 12 14  1  0
 14 15  2  0
 15 16  1  0
 16 17  2  0
 17 18  1  0
 17 19  1  0
 19 20  1  0
 20 21  1  0
 21 22  2  0
 19 23  2  0
  6 24  1  0
 24 25  2  0
 25  3  1  0
 23 14  1  0
M  END
> <Identifier>
3083544.0

> <DILI>
0

$$$$

     RDKit          2D

 78 79  0  0  0  0  0  0  0  0999 V2000
   -7.5316   -7.9697    0.0000 C   0  0  0  0  0  0  0  0  0  0  0  0
   -6.6918   -6.7268    0.0000 C   0  0  0  0  0  0  0  0  0  0  0  0
   -5.1956   -6.8325    0.0000 C   0  0  0  0  0  0  0  0  0  0  0  0
   -7.3484   -5.3781    0.0000 C   0  0  0  0  0  0  0  0  0  0  0  0
   -6.5087   -4.1352    0.0000 C   0  0  0  0  0  0  0  0  0  0  0  0
   -5.1630   -4.7978    0.0000 N   0  0  0  0  0  0  0  0  0  0  0  0
   -3.6884   -5.0728    0.0000 C   0  0  0  0  0  0  0  0  0  0  0  0
   -3.7601   -6.5711    0.0000 O   0  0  0  0  0  0  0  0  0  0  0  0
   -2.1943   -4.9398    0.0000 C   0  0  0  0  0  0  0  0  0  0  0  0
   -1.8591   -6.4019    0.0000 C   0  0  0  0  0  0  0  0  0  0  0  0
   -0.4253   -6.8426    0.0000 C   0  0  0  0  0  0  0  0  0  0  0  0
   -0.0901   -8.3047    0.0000 C   0  0  0  0  0  0  0  0  0  0  0  0
    1.3437   -8.7454    0.0000 C   0  0  0  0  0  0  0  0  0  0  0  0
    2.4423   -7.7240    0.0000 C   0  0  0  0  0  0  0  0  0  0  0  0
    2.1071   -6.2620    0.0000 C   0  0  0  0  0  0  0  0  0  0  0  0
    0.6733   -5.8212    0.0000 C   0  0  0  0  0  0  0  0  0  0  0  0
   -0.7915   -4.4086    0.0000 N   0  0  0  0  0  0  0  0  0  0  0  0
    0.4160   -3.5187    0.0000 C   0  0  0  0  0  0  0  0  0  0  0  0
    1.4620   -4.5937    0.0000 O   0  0  0  0  0  0  0  0  0  0  0  0
    1.3385   -2.3359    0.0000 C   0  0  0  0  0  0  0  0  0  0  0  0
    2.6359   -3.0889    0.0000 C   0  0  0  0  0  0  0  0  0  0  0  0
    2.6325   -4.5889    0.0000 C   0  0  0  0  0  0  0  0  0  0  0  0
    3.9298   -5.3418    0.0000 N   0  0  0  0  0  0  0  0  0  0  0  0
    1.9078   -0.9482    0.0000 N   0  0  0  0  0  0  0  0  0  0  0  0
    2.0816    0.5417    0.0000 C   0  0  0  0  0  0  0  0  0  0  0  0
    3.5812    0.5725    0.0000 O   0  0  0  0  0  0  0  0  0  0  0  0
    1.8469    2.0233    0.0000 C   0  0  0  0  0  0  0  0  0  0  0  0
    3.2827    2.4575    0.0000 N   0  0  0  0  0  0  0  0  0  0  0  0
    3.6245    3.9180    0.0000 C   0  0  0  0  0  0  0  0  0  0  0  0
    2.5306    4.9443    0.0000 O   0  0  0  0  0  0  0  0  0  0  0  0
    5.0603    4.3522    0.0000 C   0  0  0  0  0  0  0  0  0  0  0  0
    5.4021    5.8128    0.0000 C   0  0  0  0  0  0  0  0  0  0  0  0
    6.8379    6.2470    0.0000 C   0  0  0  0  0  0  0  0  0  0  0  0
    7.1797    7.7075    0.0000 N   0  0  0  0  0  0  0  0  0  0  0  0
    6.1542    3.3259    0.0000 N   0  0  0  0  0  0  0  0  0  0  0  0
    7.5900    3.7601    0.0000 C   0  0  0  0  0  0  0  0  0  0  0  0
    7.9318    5.2207    0.0000 O   0  0  0  0  0  0  0  0  0  0  0  0
    8.6839    2.7338    0.0000 C   0  0  0  0  0  0  0  0  0  0  0  0
    8.3421    1.2733    0.0000 N   0  0  0  0  0  0  0  0  0  0  0  0
    9.4360    0.2470    0.0000 C   0  0  0  0  0  0  0  0  0  0  0  0
   10.8718    0.6812    0.0000 O   0  0  0  0  0  0  0  0  0  0  0  0
    9.0942   -1.2135    0.0000 C   0  0  0  0  0  0  0  0  0  0  0  0
   10.1881   -2.2398    0.0000 C   0  0  0  0  0  0  0  0  0  0  0  0
    9.8463   -3.7004    0.0000 C   0  0  0  0  0  0  0  0  0  0  0  0
   10.9402   -4.7267    0.0000 N   0  0  0  0  0  0  0  0  0  0  0  0
    7.6584   -1.6477    0.0000 N   0  0  0  0  0  0  0  0  0  0  0  0
    7.3165   -3.1083    0.0000 C   0  0  0  0  0  0  0  0  0  0  0  0
    8.4105   -4.1346    0.0000 O   0  0  0  0  0  0  0  0  0  0  0  0
    5.8808   -3.5425    0.0000 O   0  0  0  0  0  0  0  0  0  0  0  0
   10.1197    3.1681    0.0000 C   0  0  0  0  0  0  0  0  0  0  0  0
   11.2136    2.1417    0.0000 C   0  0  0  0  0  0  0  0  0  0  0  0
   10.4615    4.6286    0.0000 O   0  0  0  0  0  0  0  0  0  0  0  0
    1.2212    3.3866    0.0000 C   0  0  0  0  0  0  0  0  0  0  0  0
    0.2509    4.5305    0.0000 C   0  0  0  0  0  0  0  0  0  0  0  0
   -0.9920    5.3702    0.0000 N   0  0  0  0  0  0  0  0  0  0  0  0
   -2.4154    5.8434    0.0000 C   0  0  0  0  0  0  0  0  0  0  0  0
   -2.1404    7.3180    0.0000 O   0  0  0  0  0  0  0  0  0  0  0  0
   -3.9137    5.9151    0.0000 C   0  0  0  0  0  0  0  0  0  0  0  0
   -4.0467    7.4092    0.0000 C   0  0  0  0  0  0  0  0  0  0  0  0
   -2.8193    8.2714    0.0000 C   0  0  0  0  0  0  0  0  0  0  0  0
   -5.4071    8.0410    0.0000 O   0  0  0  0  0  0  0  0  0  0  0  0
   -5.3757    5.5799    0.0000 N   0  0  0  0  0  0  0  0  0  0  0  0
   -6.6931    4.8626    0.0000 C   0  0  0  0  0  0  0  0  0  0  0  0
   -7.5831    6.0701    0.0000 O   0  0  0  0  0  0  0  0  0  0  0  0
   -7.7682    3.8165    0.0000 C   0  0  0  0  0  0  0  0  0  0  0  0
   -8.9509    4.7391    0.0000 C   0  0  0  0  0  0  0  0  0  0  0  0
   -8.7433    6.2247    0.0000 C   0  0  0  0  0  0  0  0  0  0  0  0
   -9.9260    7.1473    0.0000 N   0  0  0  0  0  0  0  0  0  0  0  0
   -8.5211    2.5192    0.0000 N   0  0  0  0  0  0  0  0  0  0  0  0
   -8.8961    1.0668    0.0000 C   0  0  0  0  0  0  0  0  0  0  0  0
  -10.3860    1.2406    0.0000 O   0  0  0  0  0  0  0  0  0  0  0  0
   -8.8654   -0.4329    0.0000 C   0  0  0  0  0  0  0  0  0  0  0  0
  -10.3469   -0.6675    0.0000 C   0  0  0  0  0  0  0  0  0  0  0  0
  -11.2909    0.4982    0.0000 C   0  0  0  0  0  0  0  0  0  0  0  0
  -12.7724    0.2635    0.0000 N   0  0  0  0  0  0  0  0  0  0  0  0
   -8.4312   -1.8686    0.0000 N   0  0  0  0  0  0  0  0  0  0  0  0
   -7.6257   -3.1340    0.0000 C   0  0  0  0  0  0  0  0  0  0  0  0
   -8.7696   -4.1043    0.0000 O   0  0  0  0  0  0  0  0  0  0  0  0
  1  2  1  0
  2  3  1  0
  2  4  1  0
  4  5  1  0
  5  6  1  0
  6  7  1  0
  7  8  2  0
  7  9  1  0
  9 10  1  0
 10 11  1  0
 11 12  2  0
 12 13  1  0
 13 14  2  0
 14 15  1  0
 15 16  2  0
  9 17  1  0
 17 18  1  0
 18 19  2  0
 18 20  1  0
 20 21  1  0
 21 22  1  0
 22 23  1  0
 20 24  1  0
 24 25  1  0
 25 26  2  0
 25 27  1  0
 27 28  1  0
 28 29  1  0
 29 30  2  0
 29 31  1  0
 31 32  1  0
 32 33  1  0
 33 34  1  0
 31 35  1  0
 35 36  1  0
 36 37  2  0
 36 38  1  0
 38 39  1  0
 39 40  1  0
 40 41  2  0
 40 42  1  0
 42 43  1  0
 43 44  1  0
 44 45  1  0
 42 46  1  0
 46 47  1  0
 47 48  2  0
 47 49  1  0
 38 50  1  0
 50 51  1  0
 50 52  1  0
 27 53  1  0
 53 54  1  0
 54 55  1  0
 55 56  1  0
 56 57  2  0
 56 58  1  0
 58 59  1  0
 59 60  1  0
 59 61  1  0
 58 62  1  0
 62 63  1  0
 63 64  2  0
 63 65  1  0
 65 66  1  0
 66 67  1  0
 67 68  1  0
 65 69  1  0
 69 70  1  0
 70 71  2  0
 70 72  1  0
 72 73  1  0
 73 74  1  0
 74 75  1  0
 72 76  1  0
 76 77  1  0
 77 78  2  0
 77  5  1  0
 16 11  1  0
M  END
> <Identifier>
3083714.0

> <DILI>
0

$$$$

     RDKit          2D

 20 21  0  0  0  0  0  0  0  0999 V2000
   -6.2980   -1.1212    0.0000 C   0  0  0  0  0  0  0  0  0  0  0  0
   -4.9363   -0.4920    0.0000 C   0  0  0  0  0  0  0  0  0  0  0  0
   -4.8003    1.0018    0.0000 C   0  0  0  0  0  0  0  0  0  0  0  0
   -3.4387    1.6309    0.0000 C   0  0  0  0  0  0  0  0  0  0  0  0
   -2.2130    0.7663    0.0000 C   0  0  0  0  0  0  0  0  0  0  0  0
   -0.8513    1.3954    0.0000 C   0  0  0  0  0  0  0  0  0  0  0  0
   -0.7153    2.8892    0.0000 O   0  0  0  0  0  0  0  0  0  0  0  0
    0.3744    0.5307    0.0000 C   0  0  0  0  0  0  0  0  0  0  0  0
    0.2384   -0.9631    0.0000 C   0  0  0  0  0  0  0  0  0  0  0  0
    1.4641   -1.8278    0.0000 C   0  0  0  0  0  0  0  0  0  0  0  0
    1.3281   -3.3216    0.0000 O   0  0  0  0  0  0  0  0  0  0  0  0
    2.8258   -1.1986    0.0000 C   0  0  0  0  0  0  0  0  0  0  0  0
    4.0515   -2.0633    0.0000 O   0  0  0  0  0  0  0  0  0  0  0  0
    2.9618    0.2952    0.0000 C   0  0  0  0  0  0  0  0  0  0  0  0
    4.3235    0.9244    0.0000 N   0  0  0  0  0  4  0  0  0  0  0  0
    5.5492    0.0597    0.0000 O   0  0  0  0  0  0  0  0  0  0  0  0
    4.4595    2.4182    0.0000 O   0  0  0  0  0  1  0  0  0  0  0  0
    1.7361    1.1599    0.0000 C   0  0  0  0  0  0  0  0  0  0  0  0
   -2.3489   -0.7276    0.0000 C   0  0  0  0  0  0  0  0  0  0  0  0
   -3.7106   -1.3567    0.0000 C   0  0  0  0  0  0  0  0  0  0  0  0
  1  2  1  0
  2  3  2  0
  3  4  1  0
  4  5  2  0
  5  6  1  0
  6  7  2  0
  6  8  1  0
  8  9  2  0
  9 10  1  0
 10 11  1  0
 10 12  2  0
 12 13  1  0
 12 14  1  0
 14 15  1  0
 15 16  2  0
 15 17  1  0
 14 18  2  0
  5 19  1  0
 19 20  2  0
 20  2  1  0
 18  8  1  0
M  CHG  2  15   1  17  -1
M  END
> <Identifier>
4659569.0

> <DILI>
1

$$$$

     RDKit          2D

 25 25  0  0  0  0  0  0  0  0999 V2000
    3.5045   -7.5385    0.0000 C   0  0  0  0  0  0  0  0  0  0  0  0
    4.0904   -6.1577    0.0000 C   0  0  0  0  0  0  0  0  0  0  0  0
    3.1875   -4.9598    0.0000 C   0  0  0  0  0  0  0  0  0  0  0  0
    3.7734   -3.5790    0.0000 C   0  0  0  0  0  0  0  0  0  0  0  0
    2.8705   -2.3812    0.0000 C   0  0  0  0  0  0  0  0  0  0  0  0
    3.4565   -1.0003    0.0000 C   0  0  0  0  0  0  0  0  0  0  0  0
    4.9453   -0.8173    0.0000 O   0  0  0  0  0  0  0  0  0  0  0  0
    2.5536    0.1975    0.0000 C   0  0  0  0  0  0  0  0  0  0  0  0
    3.1395    1.5783    0.0000 C   0  0  0  0  0  0  0  0  0  0  0  0
    2.2366    2.7762    0.0000 C   0  0  0  0  0  0  0  0  0  0  0  0
    2.6750    4.2107    0.0000 C   0  0  0  0  0  0  0  0  0  0  0  0
    4.0932    4.6992    0.0000 O   0  0  0  0  0  0  0  0  0  0  0  0
    1.4462    5.0709    0.0000 C   0  0  0  0  0  0  0  0  0  0  0  0
    0.2483    4.1680    0.0000 C   0  0  0  0  0  0  0  0  0  0  0  0
   -1.1862    4.6064    0.0000 O   0  0  0  0  0  0  0  0  0  0  0  0
    0.7369    2.7498    0.0000 C   0  0  0  0  0  0  0  0  0  0  0  0
   -0.1234    1.5210    0.0000 C   0  0  0  0  0  0  0  0  0  0  0  0
   -1.6177    1.6515    0.0000 C   0  0  0  0  0  0  0  0  0  0  0  0
   -2.4779    0.4227    0.0000 C   0  0  0  0  0  0  0  0  0  0  0  0
   -3.9722    0.5532    0.0000 C   0  0  0  0  0  0  0  0  0  0  0  0
   -4.8324   -0.6756    0.0000 C   0  0  0  0  0  0  0  0  0  0  0  0
   -6.3267   -0.5451    0.0000 C   0  0  0  0  0  0  0  0  0  0  0  0
   -7.1869   -1.7739    0.0000 C   0  0  0  0  0  0  0  0  0  0  0  0
   -6.5528   -3.1333    0.0000 O   0  0  0  0  0  0  0  0  0  0  0  0
   -8.6812   -1.6434    0.0000 O   0  0  0  0  0  0  0  0  0  0  0  0
  1  2  1  0
  2  3  1  0
  3  4  1  0
  4  5  1  0
  5  6  1  0
  6  7  1  0
  6  8  1  0
  8  9  2  3
  9 10  1  0
 10 11  1  0
 11 12  1  0
 11 13  1  0
 13 14  1  0
 14 15  2  0
 14 16  1  0
 16 17  1  0
 17 18  1  0
 18 19  2  3
 19 20  1  0
 20 21  1  0
 21 22  1  0
 22 23  1  0
 23 24  2  0
 23 25  1  0
 16 10  1  0
M  END
> <Identifier>
5280360.0

> <DILI>
0

$$$$

     RDKit          2D

 23 25  0  0  0  0  0  0  0  0999 V2000
   -0.2642    2.3399    0.0000 C   0  0  0  0  0  0  0  0  0  0  0  0
    0.7468    1.2318    0.0000 N   0  0  0  0  0  0  0  0  0  0  0  0
    0.2927   -0.1978    0.0000 C   0  0  0  0  0  0  0  0  0  0  0  0
   -1.1724   -0.5194    0.0000 C   0  0  0  0  0  0  0  0  0  0  0  0
   -1.6265   -1.9490    0.0000 O   0  0  0  0  0  0  0  0  0  0  0  0
   -2.1834    0.5887    0.0000 N   0  0  0  0  0  0  0  0  0  0  0  0
   -3.6486    0.2672    0.0000 C   0  0  0  0  0  0  0  0  0  0  0  0
   -4.6596    1.3752    0.0000 C   0  0  0  0  0  0  0  0  0  0  0  0
   -6.1247    1.0537    0.0000 C   0  0  0  0  0  0  0  0  0  0  0  0
   -6.5788   -0.3759    0.0000 C   0  0  0  0  0  0  0  0  0  0  0  0
   -5.5678   -1.4840    0.0000 C   0  0  0  0  0  0  0  0  0  0  0  0
   -4.1027   -1.1625    0.0000 N   0  0  0  0  0  0  0  0  0  0  0  0
    1.3038   -1.3059    0.0000 C   0  0  0  0  0  0  0  0  0  0  0  0
    0.8497   -2.7355    0.0000 O   0  0  0  0  0  0  0  0  0  0  0  0
    2.7689   -0.9843    0.0000 C   0  0  0  0  0  0  0  0  0  0  0  0
    3.7799   -2.0924    0.0000 C   0  0  0  0  0  0  0  0  0  0  0  0
    5.2451   -1.7709    0.0000 C   0  0  0  0  0  0  0  0  0  0  0  0
    5.6992   -0.3413    0.0000 C   0  0  0  0  0  0  0  0  0  0  0  0
    4.6881    0.7668    0.0000 C   0  0  0  0  0  0  0  0  0  0  0  0
    3.2230    0.4453    0.0000 C   0  0  0  0  0  0  0  0  0  0  0  0
    2.2120    1.5533    0.0000 S   0  0  0  0  0  0  0  0  0  0  0  0
    3.4788    2.3566    0.0000 O   0  0  0  0  0  0  0  0  0  0  0  0
    1.6409    2.9404    0.0000 O   0  0  0  0  0  0  0  0  0  0  0  0
  1  2  1  0
  2  3  1  0
  3  4  2  3
  4  5  1  0
  4  6  1  0
  6  7  1  0
  7  8  2  0
  8  9  1  0
  9 10  2  0
 10 11  1  0
 11 12  2  0
  3 13  1  0
 13 14  2  0
 13 15  1  0
 15 16  2  0
 16 17  1  0
 17 18  2  0
 18 19  1  0
 19 20  2  0
 20 21  1  0
 21 22  2  0
 21 23  2  0
 21  2  1  0
 12  7  1  0
 20 15  1  0
M  END
> <Identifier>
5280452.0

> <DILI>
1

$$$$

     RDKit          2D

 29 31  0  0  0  0  0  0  0  0999 V2000
   -5.7167   -3.1437    0.0000 C   0  0  0  0  0  0  0  0  0  0  0  0
   -6.1428   -1.7055    0.0000 C   0  0  0  0  0  0  0  0  0  0  0  0
   -7.6014   -1.3554    0.0000 C   0  0  0  0  0  0  0  0  0  0  0  0
   -8.0275    0.0828    0.0000 C   0  0  0  0  0  0  0  0  0  0  0  0
   -6.9951    1.1709    0.0000 C   0  0  0  0  0  0  0  0  0  0  0  0
   -7.4212    2.6091    0.0000 O   0  0  0  0  0  0  0  0  0  0  0  0
   -5.5365    0.8209    0.0000 C   0  0  0  0  0  0  0  0  0  0  0  0
   -5.1104   -0.6173    0.0000 C   0  0  0  0  0  0  0  0  0  0  0  0
   -3.6518   -0.9674    0.0000 C   0  0  0  0  0  0  0  0  0  0  0  0
   -2.6193    0.1207    0.0000 C   0  0  0  0  0  0  0  0  0  0  0  0
   -1.1608   -0.2294    0.0000 C   0  0  0  0  0  0  0  0  0  0  0  0
   -0.7346   -1.6676    0.0000 C   0  0  0  0  0  0  0  0  0  0  0  0
    0.7239   -2.0176    0.0000 C   0  0  0  0  0  0  0  0  0  0  0  0
    1.7564   -0.9295    0.0000 C   0  0  0  0  0  0  0  0  0  0  0  0
    1.3303    0.5087    0.0000 C   0  0  0  0  0  0  0  0  0  0  0  0
    2.8175    0.3130    0.0000 C   0  0  0  0  0  0  0  0  0  0  0  0
   -0.1283    0.8588    0.0000 C   0  0  0  0  0  0  0  0  0  0  0  0
   -0.2461    2.3541    0.0000 C   0  0  0  0  0  0  0  0  0  0  0  0
    1.1397    2.9282    0.0000 C   0  0  0  0  0  0  0  0  0  0  0  0
    2.1140    1.7877    0.0000 C   0  0  0  0  0  0  0  0  0  0  0  0
    3.6093    1.9055    0.0000 C   0  0  0  0  0  0  0  0  0  0  0  0
    4.2550    3.2594    0.0000 C   0  0  0  0  0  0  0  0  0  0  0  0
    4.4590    0.6694    0.0000 C   0  0  0  0  0  0  0  0  0  0  0  0
    5.9544    0.7871    0.0000 C   0  0  0  0  0  0  0  0  0  0  0  0
    6.8041   -0.4490    0.0000 C   0  0  0  0  0  0  0  0  0  0  0  0
    8.2994   -0.3312    0.0000 C   0  0  0  0  0  0  0  0  0  0  0  0
    6.1584   -1.8029    0.0000 C   0  0  0  0  0  0  0  0  0  0  0  0
    7.0081   -3.0391    0.0000 C   0  0  0  0  0  0  0  0  0  0  0  0
    4.6630   -1.9207    0.0000 C   0  0  0  0  0  0  0  0  0  0  0  0
  1  2  2  0
  2  3  1  0
  3  4  1  0
  4  5  1  0
  5  6  1  0
  5  7  1  0
  7  8  1  0
  8  9  2  3
  9 10  1  0
 10 11  2  3
 11 12  1  0
 12 13  1  0
 13 14  1  0
 14 15  1  0
 15 16  1  0
 15 17  1  0
 17 18  1  0
 18 19  1  0
 19 20  1  0
 20 21  1  0
 21 22  1  0
 21 23  1  0
 23 24  2  3
 24 25  1  0
 25 26  1  0
 25 27  1  0
 27 28  1  0
 27 29  1  0
  8  2  1  0
 17 11  1  0
 20 15  1  0
M  END
> <Identifier>
5280793.0

> <DILI>
0

$$$$

     RDKit          2D

 32 35  0  0  0  0  0  0  0  0999 V2000
    2.4755   -3.1473    0.0000 C   0  0  0  0  0  0  0  0  0  0  0  0
    2.5348   -1.6485    0.0000 C   0  0  0  0  0  0  0  0  0  0  0  0
    3.8625   -0.9504    0.0000 C   0  0  0  0  0  0  0  0  0  0  0  0
    5.1309   -1.7512    0.0000 C   0  0  0  0  0  0  0  0  0  0  0  0
    6.4586   -1.0532    0.0000 C   0  0  0  0  0  0  0  0  0  0  0  0
    6.5179    0.4456    0.0000 C   0  0  0  0  0  0  0  0  0  0  0  0
    5.2496    1.2464    0.0000 C   0  0  0  0  0  0  0  0  0  0  0  0
    5.3089    2.7452    0.0000 O   0  0  0  0  0  0  0  0  0  0  0  0
    3.9219    0.5484    0.0000 C   0  0  0  0  0  0  0  0  0  0  0  0
    2.6535    1.3492    0.0000 C   0  0  0  0  0  0  0  0  0  0  0  0
    2.7129    2.8480    0.0000 O   0  0  0  0  0  0  0  0  0  0  0  0
    1.3258    0.6512    0.0000 C   0  0  0  0  0  0  0  0  0  0  0  0
    0.0575    1.4520    0.0000 C   0  0  0  0  0  0  0  0  0  0  0  0
    0.1168    2.9508    0.0000 O   0  0  0  0  0  0  0  0  0  0  0  0
   -1.2702    0.7540    0.0000 C   0  0  0  0  0  0  0  0  0  0  0  0
   -1.2109    2.2528    0.0000 O   0  0  0  0  0  0  0  0  0  0  0  0
   -2.5386    1.5548    0.0000 C   0  0  0  0  0  0  0  0  0  0  0  0
   -2.4792    3.0536    0.0000 O   0  0  0  0  0  0  0  0  0  0  0  0
   -3.8662    0.8568    0.0000 C   0  0  0  0  0  0  0  0  0  0  0  0
   -5.1346    1.6576    0.0000 C   0  0  0  0  0  0  0  0  0  0  0  0
   -5.0753    3.1564    0.0000 N   0  0  0  0  0  0  0  0  0  0  0  0
   -6.4623    0.9595    0.0000 O   0  0  0  0  0  0  0  0  0  0  0  0
   -3.9256   -0.6421    0.0000 C   0  0  0  0  0  0  0  0  0  0  0  0
   -5.2533   -1.3401    0.0000 O   0  0  0  0  0  0  0  0  0  0  0  0
   -2.6572   -1.4429    0.0000 C   0  0  0  0  0  0  0  0  0  0  0  0
   -2.7166   -2.9417    0.0000 N   0  0  0  0  0  0  0  0  0  0  0  0
   -4.0443   -3.6397    0.0000 C   0  0  0  0  0  0  0  0  0  0  0  0
   -1.4482   -3.7425    0.0000 C   0  0  0  0  0  0  0  0  0  0  0  0
   -1.3295   -0.7449    0.0000 C   0  0  0  0  0  0  0  0  0  0  0  0
   -0.0612   -1.5457    0.0000 C   0  0  0  0  0  0  0  0  0  0  0  0
   -0.1205   -3.0445    0.0000 O   0  0  0  0  0  0  0  0  0  0  0  0
    1.2665   -0.8476    0.0000 C   0  0  0  0  0  0  0  0  0  0  0  0
  1  2  1  0
  2  3  1  0
  3  4  2  0
  4  5  1  0
  5  6  2  0
  6  7  1  0
  7  8  1  0
  7  9  2  0
  9 10  1  0
 10 11  1  0
 10 12  2  0
 12 13  1  0
 13 14  2  0
 13 15  1  0
 15 16  1  0
 15 17  1  0
 17 18  2  0
 17 19  1  0
 19 20  2  3
 20 21  1  0
 20 22  1  0
 19 23  1  0
 23 24  2  0
 23 25  1  0
 25 26  1  0
 26 27  1  0
 26 28  1  0
 25 29  1  0
 29 30  1  0
 30 31  1  0
 30 32  1  0
 32  2  1  0
  9  3  1  0
 32 12  1  0
 29 15  1  0
M  END
> <Identifier>
5281011.0

> <DILI>
1

$$$$

     RDKit          2D

 41 45  0  0  0  0  0  0  0  0999 V2000
   -4.7950    1.7392    0.0000 C   0  0  0  0  0  0  0  0  0  0  0  0
   -5.4116    3.1066    0.0000 C   0  0  0  0  0  0  0  0  0  0  0  0
   -6.0282    4.4740    0.0000 C   0  0  0  0  0  0  0  0  0  0  0  0
   -6.7790    2.4900    0.0000 O   0  0  0  0  0  0  0  0  0  0  0  0
   -4.0442    3.7232    0.0000 C   0  0  0  0  0  0  0  0  0  0  0  0
   -3.8945    5.2158    0.0000 C   0  0  0  0  0  0  0  0  0  0  0  0
   -2.5271    5.8324    0.0000 C   0  0  0  0  0  0  0  0  0  0  0  0
   -1.3094    4.9565    0.0000 C   0  0  0  0  0  0  0  0  0  0  0  0
   -1.4591    3.4640    0.0000 C   0  0  0  0  0  0  0  0  0  0  0  0
   -2.8265    2.8474    0.0000 C   0  0  0  0  0  0  0  0  0  0  0  0
   -2.9762    1.3549    0.0000 C   0  0  0  0  0  0  0  0  0  0  0  0
   -1.7585    0.4790    0.0000 C   0  0  0  0  0  0  0  0  0  0  0  0
   -1.9081   -1.0135    0.0000 C   0  0  0  0  0  0  0  0  0  0  0  0
   -3.2755   -1.6302    0.0000 S   0  0  0  0  0  0  0  0  0  0  0  0
   -4.4932   -0.7543    0.0000 C   0  0  0  0  0  0  0  0  0  0  0  0
   -5.8606   -1.3709    0.0000 C   0  0  0  0  0  0  0  0  0  0  0  0
   -5.4908   -2.8246    0.0000 C   0  0  0  0  0  0  0  0  0  0  0  0
   -6.5648   -3.8717    0.0000 C   0  0  0  0  0  0  0  0  0  0  0  0
   -8.0087   -3.4652    0.0000 O   0  0  0  0  0  0  0  0  0  0  0  0
   -6.1950   -5.3254    0.0000 O   0  0  0  0  0  0  0  0  0  0  0  0
   -7.3565   -1.4827    0.0000 C   0  0  0  0  0  0  0  0  0  0  0  0
   -6.7053   -0.1314    0.0000 C   0  0  0  0  0  0  0  0  0  0  0  0
   -0.6904   -1.8894    0.0000 C   0  0  0  0  0  0  0  0  0  0  0  0
   -0.8401   -3.3819    0.0000 C   0  0  0  0  0  0  0  0  0  0  0  0
    0.3776   -4.2578    0.0000 C   0  0  0  0  0  0  0  0  0  0  0  0
    1.7450   -3.6412    0.0000 C   0  0  0  0  0  0  0  0  0  0  0  0
    1.8947   -2.1487    0.0000 C   0  0  0  0  0  0  0  0  0  0  0  0
    3.2621   -1.5320    0.0000 C   0  0  0  0  0  0  0  0  0  0  0  0
    4.4798   -2.4079    0.0000 C   0  0  0  0  0  0  0  0  0  0  0  0
    5.8472   -1.7913    0.0000 C   0  0  0  0  0  0  0  0  0  0  0  0
    7.0649   -2.6672    0.0000 C   0  0  0  0  0  0  0  0  0  0  0  0
    8.4323   -2.0505    0.0000 C   0  0  0  0  0  0  0  0  0  0  0  0
    8.5820   -0.5580    0.0000 C   0  0  0  0  0  0  0  0  0  0  0  0
    9.9494    0.0586    0.0000 C   0  0  0  0  0  0  0  0  0  0  0  0
   10.0991    1.5511    0.0000 C   0  0  0  0  0  0  0  0  0  0  0  0
    8.8813    2.4270    0.0000 C   0  0  0  0  0  0  0  0  0  0  0  0
    9.0310    3.9195    0.0000 Cl  0  0  0  0  0  0  0  0  0  0  0  0
    7.5139    1.8104    0.0000 C   0  0  0  0  0  0  0  0  0  0  0  0
    7.3643    0.3179    0.0000 C   0  0  0  0  0  0  0  0  0  0  0  0
    5.9969   -0.2988    0.0000 N   0  0  0  0  0  0  0  0  0  0  0  0
    0.6770   -1.2728    0.0000 C   0  0  0  0  0  0  0  0  0  0  0  0
  1  2  1  0
  2  3  1  0
  2  4  1  0
  2  5  1  0
  5  6  2  0
  6  7  1  0
  7  8  2  0
  8  9  1  0
  9 10  2  0
 10 11  1  0
 11 12  1  0
 12 13  1  0
 13 14  1  0
 14 15  1  0
 15 16  1  0
 16 17  1  0
 17 18  1  0
 18 19  2  0
 18 20  1  0
 16 21  1  0
 21 22  1  0
 13 23  1  0
 23 24  2  0
 24 25  1  0
 25 26  2  0
 26 27  1  0
 27 28  1  0
 28 29  2  3
 29 30  1  0
 30 31  2  0
 31 32  1  0
 32 33  2  0
 33 34  1  0
 34 35  2  0
 35 36  1  0
 36 37  1  0
 36 38  2  0
 38 39  1  0
 39 40  2  0
 27 41  2  0
 10  5  1  0
 22 16  1  0
 41 23  1  0
 40 30  1  0
 39 33  1  0
M  END
> <Identifier>
5281040.0

> <DILI>
0

$$$$

     RDKit          2D

 21 23  0  0  0  0  0  0  0  0999 V2000
   -5.6825   -2.7207    0.0000 C   0  0  0  0  0  0  0  0  0  0  0  0
   -4.3578   -2.0170    0.0000 C   0  0  0  0  0  0  0  0  0  0  0  0
   -4.3049   -0.5180    0.0000 C   0  0  0  0  0  0  0  0  0  0  0  0
   -2.9802    0.1857    0.0000 C   0  0  0  0  0  0  0  0  0  0  0  0
   -1.7084   -0.6096    0.0000 C   0  0  0  0  0  0  0  0  0  0  0  0
   -0.3837    0.0941    0.0000 C   0  0  0  0  0  0  0  0  0  0  0  0
    0.8880   -0.7013    0.0000 C   0  0  0  0  0  0  0  0  0  0  0  0
    2.2127    0.0024    0.0000 C   0  0  0  0  0  0  0  0  0  0  0  0
    3.4845   -0.7930    0.0000 N   0  0  0  0  0  0  0  0  0  0  0  0
    4.8755   -0.2316    0.0000 C   0  0  0  0  0  0  0  0  0  0  0  0
    5.8392   -1.3810    0.0000 C   0  0  0  0  0  0  0  0  0  0  0  0
    5.0438   -2.6528    0.0000 C   0  0  0  0  0  0  0  0  0  0  0  0
    3.5885   -2.2894    0.0000 C   0  0  0  0  0  0  0  0  0  0  0  0
   -0.3308    1.5931    0.0000 C   0  0  0  0  0  0  0  0  0  0  0  0
    0.9939    2.2968    0.0000 C   0  0  0  0  0  0  0  0  0  0  0  0
    1.0468    3.7959    0.0000 C   0  0  0  0  0  0  0  0  0  0  0  0
   -0.2250    4.5913    0.0000 C   0  0  0  0  0  0  0  0  0  0  0  0
   -1.5497    3.8876    0.0000 C   0  0  0  0  0  0  0  0  0  0  0  0
   -1.6026    2.3885    0.0000 N   0  0  0  0  0  0  0  0  0  0  0  0
   -1.7614   -2.1087    0.0000 C   0  0  0  0  0  0  0  0  0  0  0  0
   -3.0861   -2.8124    0.0000 C   0  0  0  0  0  0  0  0  0  0  0  0
  1  2  1  0
  2  3  2  0
  3  4  1  0
  4  5  2  0
  5  6  1  0
  6  7  2  3
  7  8  1  0
  8  9  1  0
  9 10  1  0
 10 11  1  0
 11 12  1  0
 12 13  1  0
  6 14  1  0
 14 15  2  0
 15 16  1  0
 16 17  2  0
 17 18  1  0
 18 19  2  0
  5 20  1  0
 20 21  2  0
 21  2  1  0
 13  9  1  0
 19 14  1  0
M  END
> <Identifier>
5282443.0

> <DILI>
0

$$$$

     RDKit          2D

 22 26  0  0  0  0  0  0  0  0999 V2000
   -5.3347   -1.4067    0.0000 C   0  0  0  0  0  0  0  0  0  0  0  0
   -3.8625   -1.6939    0.0000 O   0  0  0  0  0  0  0  0  0  0  0  0
   -2.8776   -0.5626    0.0000 C   0  0  0  0  0  0  0  0  0  0  0  0
   -3.3650    0.8561    0.0000 C   0  0  0  0  0  0  0  0  0  0  0  0
   -2.3801    1.9874    0.0000 C   0  0  0  0  0  0  0  0  0  0  0  0
   -0.9078    1.7002    0.0000 C   0  0  0  0  0  0  0  0  0  0  0  0
   -0.4205    0.2815    0.0000 C   0  0  0  0  0  0  0  0  0  0  0  0
   -1.4054   -0.8498    0.0000 C   0  0  0  0  0  0  0  0  0  0  0  0
   -0.6337   -2.1361    0.0000 O   0  0  0  0  0  0  0  0  0  0  0  0
    0.8281   -1.7997    0.0000 C   0  0  0  0  0  0  0  0  0  0  0  0
    2.0562   -2.6610    0.0000 C   0  0  0  0  0  0  0  0  0  0  0  0
    1.9244   -4.1552    0.0000 O   0  0  0  0  0  0  0  0  0  0  0  0
    3.4161   -2.0280    0.0000 C   0  0  0  0  0  0  0  0  0  0  0  0
    3.5479   -0.5338    0.0000 C   0  0  0  0  0  0  0  0  0  0  0  0
    2.3198    0.3274    0.0000 C   0  0  0  0  0  0  0  0  0  0  0  0
    2.4516    1.8216    0.0000 C   0  0  0  0  0  0  0  0  0  0  0  0
    0.3633    2.4966    0.0000 C   0  0  0  0  0  0  0  0  0  0  0  0
    1.1620    1.9856    0.0000 N   0  0  0  0  0  0  0  0  0  0  0  0
    1.3553    4.1770    0.0000 C   0  0  0  0  0  0  0  0  0  0  0  0
    0.4367    1.6480    0.0000 C   0  0  0  0  0  0  0  0  0  0  0  0
    0.3664    0.8511    0.0000 C   0  0  0  0  0  0  0  0  0  0  0  0
    0.9599   -0.3055    0.0000 C   0  0  0  0  0  0  0  0  0  0  0  0
  1  2  1  0
  2  3  1  0
  3  4  2  0
  4  5  1  0
  5  6  2  0
  6  7  1  0
  7  8  2  0
  8  9  1  0
  9 10  1  0
 10 11  1  0
 11 12  1  0
 11 13  1  0
 13 14  2  0
 14 15  1  0
 15 16  1  0
 16 17  1  0
 16 18  1  0
 18 19  1  0
 18 20  1  0
 20 21  1  0
 21 22  1  0
  8  3  1  0
 22 10  1  0
 17  6  1  0
 22  7  1  0
 22 15  1  0
M  END
> <Identifier>
5284371.0

> <DILI>
0

$$$$

     RDKit          2D

 22 26  0  0  0  0  0  0  0  0999 V2000
   -5.3347   -1.4067    0.0000 C   0  0  0  0  0  0  0  0  0  0  0  0
   -3.8625   -1.6939    0.0000 O   0  0  0  0  0  0  0  0  0  0  0  0
   -2.8776   -0.5626    0.0000 C   0  0  0  0  0  0  0  0  0  0  0  0
   -3.3650    0.8561    0.0000 C   0  0  0  0  0  0  0  0  0  0  0  0
   -2.3801    1.9874    0.0000 C   0  0  0  0  0  0  0  0  0  0  0  0
   -0.9078    1.7002    0.0000 C   0  0  0  0  0  0  0  0  0  0  0  0
   -0.4205    0.2815    0.0000 C   0  0  0  0  0  0  0  0  0  0  0  0
   -1.4054   -0.8498    0.0000 C   0  0  0  0  0  0  0  0  0  0  0  0
   -0.6337   -2.1361    0.0000 O   0  0  0  0  0  0  0  0  0  0  0  0
    0.8281   -1.7997    0.0000 C   0  0  0  0  0  0  0  0  0  0  0  0
    2.0562   -2.6610    0.0000 C   0  0  0  0  0  0  0  0  0  0  0  0
    1.9244   -4.1552    0.0000 O   0  0  0  0  0  0  0  0  0  0  0  0
    3.4161   -2.0280    0.0000 C   0  0  0  0  0  0  0  0  0  0  0  0
    3.5479   -0.5338    0.0000 C   0  0  0  0  0  0  0  0  0  0  0  0
    2.3198    0.3274    0.0000 C   0  0  0  0  0  0  0  0  0  0  0  0
    2.4516    1.8216    0.0000 C   0  0  0  0  0  0  0  0  0  0  0  0
    0.3633    2.4966    0.0000 C   0  0  0  0  0  0  0  0  0  0  0  0
    1.1620    1.9856    0.0000 N   0  0  0  0  0  0  0  0  0  0  0  0
    1.3553    4.1770    0.0000 C   0  0  0  0  0  0  0  0  0  0  0  0
    0.4367    1.6480    0.0000 C   0  0  0  0  0  0  0  0  0  0  0  0
    0.3664    0.8511    0.0000 C   0  0  0  0  0  0  0  0  0  0  0  0
    0.9599   -0.3055    0.0000 C   0  0  0  0  0  0  0  0  0  0  0  0
  1  2  1  0
  2  3  1  0
  3  4  2  0
  4  5  1  0
  5  6  2  0
  6  7  1  0
  7  8  2  0
  8  9  1  0
  9 10  1  0
 10 11  1  0
 11 12  2  0
 11 13  1  0
 13 14  1  0
 14 15  1  0
 15 16  1  0
 16 17  1  0
 16 18  1  0
 18 19  1  0
 18 20  1  0
 20 21  1  0
 21 22  1  0
  8  3  1  0
 22 10  1  0
 17  6  1  0
 22  7  1  0
 22 15  1  0
M  END
> <Identifier>
5284569.0

> <DILI>
0

$$$$

     RDKit          2D

 21 25  0  0  0  0  0  0  0  0999 V2000
   -1.1643   -4.0926    0.0000 C   0  0  0  0  0  0  0  0  0  0  0  0
   -0.2055   -2.1126    0.0000 N   0  0  0  0  0  0  0  0  0  0  0  0
   -0.6547   -1.4506    0.0000 C   0  0  0  0  0  0  0  0  0  0  0  0
   -0.3060   -0.7306    0.0000 C   0  0  0  0  0  0  0  0  0  0  0  0
    0.7970   -0.0425    0.0000 C   0  0  0  0  0  0  0  0  0  0  0  0
   -0.6890    0.1620    0.0000 C   0  0  0  0  0  0  0  0  0  0  0  0
   -1.8354   -0.8054    0.0000 C   0  0  0  0  0  0  0  0  0  0  0  0
   -3.2463   -0.2963    0.0000 C   0  0  0  0  0  0  0  0  0  0  0  0
   -3.5110    1.1802    0.0000 C   0  0  0  0  0  0  0  0  0  0  0  0
   -2.3646    2.1476    0.0000 C   0  0  0  0  0  0  0  0  0  0  0  0
   -2.6293    3.6240    0.0000 O   0  0  0  0  0  0  0  0  0  0  0  0
   -0.9537    1.6385    0.0000 C   0  0  0  0  0  0  0  0  0  0  0  0
    0.3688    2.3465    0.0000 O   0  0  0  0  0  0  0  0  0  0  0  0
    1.4507    1.3075    0.0000 C   0  0  0  0  0  0  0  0  0  0  0  0
    2.9468    1.4164    0.0000 C   0  0  0  0  0  0  0  0  0  0  0  0
    3.6005    2.7664    0.0000 O   0  0  0  0  0  0  0  0  0  0  0  0
    3.7891    0.1752    0.0000 C   0  0  0  0  0  0  0  0  0  0  0  0
    3.1353   -1.1749    0.0000 C   0  0  0  0  0  0  0  0  0  0  0  0
    1.6393   -1.2837    0.0000 C   0  0  0  0  0  0  0  0  0  0  0  0
    0.9855   -2.6338    0.0000 C   0  0  0  0  0  0  0  0  0  0  0  0
   -1.1532   -2.1413    0.0000 C   0  0  0  0  0  0  0  0  0  0  0  0
  1  2  1  0
  2  3  1  0
  3  4  1  0
  4  5  1  0
  5  6  1  0
  6  7  2  0
  7  8  1  0
  8  9  2  0
  9 10  1  0
 10 11  1  0
 10 12  2  0
 12 13  1  0
 13 14  1  0
 14 15  1  0
 15 16  2  0
 15 17  1  0
 17 18  1  0
 18 19  1  0
 19 20  1  0
 20 21  1  0
 20  2  1  0
 14  5  1  0
 19  5  1  0
 12  6  1  0
 21  7  1  0
M  END
> <Identifier>
5284570.0

> <DILI>
0

$$$$

     RDKit          2D

 25 30  0  0  0  0  0  0  0  0999 V2000
    1.1143   -4.7417    0.0000 C   0  0  0  0  0  0  0  0  0  0  0  0
    0.4799   -3.3824    0.0000 C   0  0  0  0  0  0  0  0  0  0  0  0
   -1.0145   -3.2523    0.0000 C   0  0  0  0  0  0  0  0  0  0  0  0
   -1.6489   -1.8930    0.0000 C   0  0  0  0  0  0  0  0  0  0  0  0
   -0.7890   -0.6640    0.0000 C   0  0  0  0  0  0  0  0  0  0  0  0
   -2.2704   -0.8993    0.0000 O   0  0  0  0  0  0  0  0  0  0  0  0
   -1.4234    0.6952    0.0000 C   0  0  0  0  0  0  0  0  0  0  0  0
   -0.5635    1.9243    0.0000 C   0  0  0  0  0  0  0  0  0  0  0  0
    0.9308    1.7941    0.0000 C   0  0  0  0  0  0  0  0  0  0  0  0
    1.7907    3.0232    0.0000 C   0  0  0  0  0  0  0  0  0  0  0  0
    3.2851    2.8930    0.0000 C   0  0  0  0  0  0  0  0  0  0  0  0
    3.9195    1.5338    0.0000 C   0  0  0  0  0  0  0  0  0  0  0  0
    5.4138    1.4036    0.0000 O   0  0  0  0  0  0  0  0  0  0  0  0
    3.0596    0.3047    0.0000 C   0  0  0  0  0  0  0  0  0  0  0  0
    1.5652    0.4349    0.0000 C   0  0  0  0  0  0  0  0  0  0  0  0
    0.7053   -0.7942    0.0000 C   0  0  0  0  0  0  0  0  0  0  0  0
    0.4852    0.0241    0.0000 C   0  0  0  0  0  0  0  0  0  0  0  0
   -0.4450   -0.1724    0.0000 C   0  0  0  0  0  0  0  0  0  0  0  0
   -0.5792    0.7688    0.0000 N   0  0  0  0  0  0  0  0  0  0  0  0
   -3.7777   -0.4036    0.0000 C   0  0  0  0  0  0  0  0  0  0  0  0
   -4.4121    0.9556    0.0000 C   0  0  0  0  0  0  0  0  0  0  0  0
   -5.6412    1.8155    0.0000 C   0  0  0  0  0  0  0  0  0  0  0  0
   -4.2819    2.4499    0.0000 C   0  0  0  0  0  0  0  0  0  0  0  0
    1.3398   -2.1534    0.0000 C   0  0  0  0  0  0  0  0  0  0  0  0
    2.7579   -1.6645    0.0000 O   0  0  0  0  0  0  0  0  0  0  0  0
  1  2  2  0
  2  3  1  0
  3  4  1  0
  4  5  1  0
  5  6  1  0
  5  7  1  0
  7  8  1  0
  8  9  1  0
  9 10  2  0
 10 11  1  0
 11 12  2  0
 12 13  1  0
 12 14  1  0
 14 15  2  0
 15 16  1  0
 16 17  1  0
 17 18  1  0
 18 19  1  0
 19 20  1  0
 20 21  1  0
 21 22  1  0
 22 23  1  0
 16 24  1  0
 24 25  1  0
 24  2  1  0
 16  5  1  0
 23 21  1  0
 19  7  1  0
 15  9  1  0
 25 14  1  0
M  END
> <Identifier>
5284594.0

> <DILI>
0

$$$$

     RDKit          2D

 23 27  0  0  0  0  0  0  0  0999 V2000
   -5.5822   -1.0628    0.0000 C   0  0  0  0  0  0  0  0  0  0  0  0
   -4.1335   -1.4518    0.0000 O   0  0  0  0  0  0  0  0  0  0  0  0
   -3.0723   -0.3916    0.0000 C   0  0  0  0  0  0  0  0  0  0  0  0
   -3.4598    1.0575    0.0000 C   0  0  0  0  0  0  0  0  0  0  0  0
   -2.3986    2.1176    0.0000 C   0  0  0  0  0  0  0  0  0  0  0  0
   -0.9499    1.7286    0.0000 C   0  0  0  0  0  0  0  0  0  0  0  0
   -0.5624    0.2796    0.0000 C   0  0  0  0  0  0  0  0  0  0  0  0
   -1.6236   -0.7806    0.0000 C   0  0  0  0  0  0  0  0  0  0  0  0
   -0.9432   -2.1174    0.0000 O   0  0  0  0  0  0  0  0  0  0  0  0
    0.5384   -1.8835    0.0000 C   0  0  0  0  0  0  0  0  0  0  0  0
    1.7037   -2.8281    0.0000 C   0  0  0  0  0  0  0  0  0  0  0  0
    1.4683   -4.3095    0.0000 O   0  0  0  0  0  0  0  0  0  0  0  0
    3.1043   -2.2912    0.0000 C   0  0  0  0  0  0  0  0  0  0  0  0
    3.3397   -0.8098    0.0000 C   0  0  0  0  0  0  0  0  0  0  0  0
    2.1744    0.1348    0.0000 C   0  0  0  0  0  0  0  0  0  0  0  0
    3.5751    0.6716    0.0000 O   0  0  0  0  0  0  0  0  0  0  0  0
    2.4098    1.6162    0.0000 C   0  0  0  0  0  0  0  0  0  0  0  0
    0.3735    2.4348    0.0000 C   0  0  0  0  0  0  0  0  0  0  0  0
    1.1347    1.8694    0.0000 N   0  0  0  0  0  0  0  0  0  0  0  0
    1.4799    4.0422    0.0000 C   0  0  0  0  0  0  0  0  0  0  0  0
    0.3877    1.5831    0.0000 C   0  0  0  0  0  0  0  0  0  0  0  0
    0.2622    0.7930    0.0000 C   0  0  0  0  0  0  0  0  0  0  0  0
    0.7738   -0.4021    0.0000 C   0  0  0  0  0  0  0  0  0  0  0  0
  1  2  1  0
  2  3  1  0
  3  4  2  0
  4  5  1  0
  5  6  2  0
  6  7  1  0
  7  8  2  0
  8  9  1  0
  9 10  1  0
 10 11  1  0
 11 12  2  0
 11 13  1  0
 13 14  1  0
 14 15  1  0
 15 16  1  0
 15 17  1  0
 17 18  1  0
 17 19  1  0
 19 20  1  0
 19 21  1  0
 21 22  1  0
 22 23  1  0
  8  3  1  0
 23 10  1  0
 18  6  1  0
 23  7  1  0
 23 15  1  0
M  END
> <Identifier>
5284603.0

> <DILI>
0

$$$$

     RDKit          2D

 22 26  0  0  0  0  0  0  0  0999 V2000
   -0.0531   -4.1775    0.0000 C   0  0  0  0  0  0  0  0  0  0  0  0
    0.2822   -2.0032    0.0000 N   0  0  0  0  0  0  0  0  0  0  0  0
   -0.3415   -1.5023    0.0000 C   0  0  0  0  0  0  0  0  0  0  0  0
   -0.2196   -0.7116    0.0000 C   0  0  0  0  0  0  0  0  0  0  0  0
    0.6328    0.2699    0.0000 C   0  0  0  0  0  0  0  0  0  0  0  0
   -0.8477    0.0293    0.0000 C   0  0  0  0  0  0  0  0  0  0  0  0
   -1.6596   -1.2321    0.0000 C   0  0  0  0  0  0  0  0  0  0  0  0
   -3.1579   -1.1596    0.0000 C   0  0  0  0  0  0  0  0  0  0  0  0
   -3.8442    0.1741    0.0000 C   0  0  0  0  0  0  0  0  0  0  0  0
   -3.0324    1.4354    0.0000 C   0  0  0  0  0  0  0  0  0  0  0  0
   -3.7188    2.7692    0.0000 O   0  0  0  0  0  0  0  0  0  0  0  0
   -1.5341    1.3630    0.0000 C   0  0  0  0  0  0  0  0  0  0  0  0
   -0.4778    2.4279    0.0000 O   0  0  0  0  0  0  0  0  0  0  0  0
    0.8615    1.7524    0.0000 C   0  0  0  0  0  0  0  0  0  0  0  0
    2.2597    2.2956    0.0000 C   0  0  0  0  0  0  0  0  0  0  0  0
    2.4883    3.7780    0.0000 O   0  0  0  0  0  0  0  0  0  0  0  0
    3.4292    1.3563    0.0000 C   0  0  0  0  0  0  0  0  0  0  0  0
    3.2005   -0.1261    0.0000 C   0  0  0  0  0  0  0  0  0  0  0  0
    1.8024   -0.6694    0.0000 C   0  0  0  0  0  0  0  0  0  0  0  0
    2.9719   -1.6086    0.0000 O   0  0  0  0  0  0  0  0  0  0  0  0
    1.5737   -2.1518    0.0000 C   0  0  0  0  0  0  0  0  0  0  0  0
   -0.6154   -2.3089    0.0000 C   0  0  0  0  0  0  0  0  0  0  0  0
  1  2  1  0
  2  3  1  0
  3  4  1  0
  4  5  1  0
  5  6  1  0
  6  7  2  0
  7  8  1  0
  8  9  2  0
  9 10  1  0
 10 11  1  0
 10 12  2  0
 12 13  1  0
 13 14  1  0
 14 15  1  0
 15 16  2  0
 15 17  1  0
 17 18  1  0
 18 19  1  0
 19 20  1  0
 19 21  1  0
 21 22  1  0
 21  2  1  0
 14  5  1  0
 19  5  1  0
 12  6  1  0
 22  7  1  0
M  END
> <Identifier>
5284604.0

> <DILI>
0

$$$$

     RDKit          2D

 21 25  0  0  0  0  0  0  0  0999 V2000
   -1.1643   -4.0926    0.0000 C   0  0  0  0  0  0  0  0  0  0  0  0
   -0.2055   -2.1126    0.0000 N   0  0  0  0  0  0  0  0  0  0  0  0
   -0.6547   -1.4506    0.0000 C   0  0  0  0  0  0  0  0  0  0  0  0
   -0.3060   -0.7306    0.0000 C   0  0  0  0  0  0  0  0  0  0  0  0
    0.7970   -0.0425    0.0000 C   0  0  0  0  0  0  0  0  0  0  0  0
   -0.6890    0.1620    0.0000 C   0  0  0  0  0  0  0  0  0  0  0  0
   -1.8354   -0.8054    0.0000 C   0  0  0  0  0  0  0  0  0  0  0  0
   -3.2463   -0.2963    0.0000 C   0  0  0  0  0  0  0  0  0  0  0  0
   -3.5110    1.1802    0.0000 C   0  0  0  0  0  0  0  0  0  0  0  0
   -2.3646    2.1476    0.0000 C   0  0  0  0  0  0  0  0  0  0  0  0
   -2.6293    3.6240    0.0000 O   0  0  0  0  0  0  0  0  0  0  0  0
   -0.9537    1.6385    0.0000 C   0  0  0  0  0  0  0  0  0  0  0  0
    0.3688    2.3465    0.0000 O   0  0  0  0  0  0  0  0  0  0  0  0
    1.4507    1.3075    0.0000 C   0  0  0  0  0  0  0  0  0  0  0  0
    2.9468    1.4164    0.0000 C   0  0  0  0  0  0  0  0  0  0  0  0
    3.6005    2.7664    0.0000 O   0  0  0  0  0  0  0  0  0  0  0  0
    3.7891    0.1752    0.0000 C   0  0  0  0  0  0  0  0  0  0  0  0
    3.1353   -1.1749    0.0000 C   0  0  0  0  0  0  0  0  0  0  0  0
    1.6393   -1.2837    0.0000 C   0  0  0  0  0  0  0  0  0  0  0  0
    0.9855   -2.6338    0.0000 C   0  0  0  0  0  0  0  0  0  0  0  0
   -1.1532   -2.1413    0.0000 C   0  0  0  0  0  0  0  0  0  0  0  0
  1  2  1  0
  2  3  1  0
  3  4  1  0
  4  5  1  0
  5  6  1  0
  6  7  2  0
  7  8  1  0
  8  9  2  0
  9 10  1  0
 10 11  1  0
 10 12  2  0
 12 13  1  0
 13 14  1  0
 14 15  1  0
 15 16  1  0
 15 17  1  0
 17 18  2  0
 18 19  1  0
 19 20  1  0
 20 21  1  0
 20  2  1  0
 14  5  1  0
 19  5  1  0
 12  6  1  0
 21  7  1  0
M  END
> <Identifier>
5288826.0

> <DILI>
0

$$$$

     RDKit          2D

 29 31  0  0  0  0  0  0  0  0999 V2000
   -9.5104    2.5314    0.0000 C   0  0  0  0  0  0  0  0  0  0  0  0
   -8.0105    2.5537    0.0000 C   0  0  0  0  0  0  0  0  0  0  0  0
   -7.2413    1.2659    0.0000 N   0  0  0  0  0  0  0  0  0  0  0  0
   -7.9719   -0.0441    0.0000 C   0  0  0  0  0  0  0  0  0  0  0  0
   -9.4717   -0.0664    0.0000 C   0  0  0  0  0  0  0  0  0  0  0  0
   -5.7415    1.2882    0.0000 C   0  0  0  0  0  0  0  0  0  0  0  0
   -4.9722    0.0005    0.0000 C   0  0  0  0  0  0  0  0  0  0  0  0
   -3.4724    0.0228    0.0000 N   0  0  0  0  0  0  0  0  0  0  0  0
   -2.7031   -1.2649    0.0000 C   0  0  0  0  0  0  0  0  0  0  0  0
   -3.4337   -2.5750    0.0000 O   0  0  0  0  0  0  0  0  0  0  0  0
   -1.2033   -1.2426    0.0000 C   0  0  0  0  0  0  0  0  0  0  0  0
   -0.3037   -2.4429    0.0000 C   0  0  0  0  0  0  0  0  0  0  0  0
   -0.7459   -3.8762    0.0000 C   0  0  0  0  0  0  0  0  0  0  0  0
    1.1159   -1.9582    0.0000 N   0  0  0  0  0  0  0  0  0  0  0  0
    1.0935   -0.4583    0.0000 C   0  0  0  0  0  0  0  0  0  0  0  0
    2.2938    0.4413    0.0000 C   0  0  0  0  0  0  0  0  0  0  0  0
    3.6731   -0.1484    0.0000 C   0  0  0  0  0  0  0  0  0  0  0  0
    4.0067   -1.6108    0.0000 C   0  0  0  0  0  0  0  0  0  0  0  0
    3.0197   -2.7403    0.0000 O   0  0  0  0  0  0  0  0  0  0  0  0
    5.5007   -1.7454    0.0000 N   0  0  0  0  0  0  0  0  0  0  0  0
    6.0903   -0.3661    0.0000 C   0  0  0  0  0  0  0  0  0  0  0  0
    7.5099    0.1186    0.0000 C   0  0  0  0  0  0  0  0  0  0  0  0
    7.7999    1.5903    0.0000 C   0  0  0  0  0  0  0  0  0  0  0  0
    6.6703    2.5773    0.0000 C   0  0  0  0  0  0  0  0  0  0  0  0
    6.9604    4.0490    0.0000 F   0  0  0  0  0  0  0  0  0  0  0  0
    5.2508    2.0926    0.0000 C   0  0  0  0  0  0  0  0  0  0  0  0
    4.9608    0.6209    0.0000 C   0  0  0  0  0  0  0  0  0  0  0  0
   -0.3398   -0.0161    0.0000 C   0  0  0  0  0  0  0  0  0  0  0  0
   -0.8245    1.4034    0.0000 C   0  0  0  0  0  0  0  0  0  0  0  0
  1  2  1  0
  2  3  1  0
  3  4  1  0
  4  5  1  0
  3  6  1  0
  6  7  1  0
  7  8  1  0
  8  9  1  0
  9 10  2  0
  9 11  1  0
 11 12  2  0
 12 13  1  0
 12 14  1  0
 14 15  1  0
 15 16  1  0
 16 17  2  3
 17 18  1  0
 18 19  2  0
 18 20  1  0
 20 21  1  0
 21 22  2  0
 22 23  1  0
 23 24  2  0
 24 25  1  0
 24 26  1  0
 26 27  2  0
 15 28  2  0
 28 29  1  0
 28 11  1  0
 27 17  1  0
 27 21  1  0
M  END
> <Identifier>
5329102.0

> <DILI>
1

$$$$

     RDKit          2D

 13 13  0  0  0  0  0  0  0  0999 V2000
    4.7422    0.5736    0.0000 C   0  0  0  0  0  0  0  0  0  0  0  0
    3.4335   -0.1594    0.0000 N   0  0  0  0  0  0  0  0  0  0  0  0
    3.4139   -1.6593    0.0000 C   0  0  0  0  0  0  0  0  0  0  0  0
    2.1443    0.6074    0.0000 N   0  0  0  0  0  0  0  0  0  0  0  0
    0.8356   -0.1256    0.0000 N   0  0  0  0  0  0  0  0  0  0  0  0
   -0.4535    0.6413    0.0000 C   0  0  0  0  0  0  0  0  0  0  0  0
   -0.5909    2.1350    0.0000 N   0  0  0  0  0  0  0  0  0  0  0  0
   -2.0539    2.4660    0.0000 C   0  0  0  0  0  0  0  0  0  0  0  0
   -2.8208    1.1768    0.0000 N   0  0  0  0  0  0  0  0  0  0  0  0
   -1.8317    0.0491    0.0000 C   0  0  0  0  0  0  0  0  0  0  0  0
   -2.1626   -1.4139    0.0000 C   0  0  0  0  0  0  0  0  0  0  0  0
   -3.5951   -1.8588    0.0000 N   0  0  0  0  0  0  0  0  0  0  0  0
   -1.0611   -2.4321    0.0000 O   0  0  0  0  0  0  0  0  0  0  0  0
  1  2  1  0
  2  3  1  0
  2  4  1  0
  4  5  1  0
  5  6  2  3
  6  7  1  0
  7  8  2  0
  8  9  1  0
  9 10  2  0
 10 11  1  0
 11 12  1  0
 11 13  2  0
 10  6  1  0
M  END
> <Identifier>
5351166.0

> <DILI>
1

$$$$

     RDKit          2D

 17 18  0  0  0  0  0  0  0  0999 V2000
   -5.5282   -2.3449    0.0000 O   0  0  0  0  0  0  0  0  0  0  0  0
   -4.6180   -1.1526    0.0000 C   0  0  0  0  0  0  0  0  0  0  0  0
   -3.1184   -1.1882    0.0000 C   0  0  0  0  0  0  0  0  0  0  0  0
   -2.6212    0.2270    0.0000 N   0  0  0  0  0  0  0  0  0  0  0  0
   -1.1841    0.6566    0.0000 N   0  0  0  0  0  0  0  0  0  0  0  0
   -0.0934   -0.3732    0.0000 C   0  0  0  0  0  0  0  0  0  0  0  0
    1.3437    0.0564    0.0000 C   0  0  0  0  0  0  0  0  0  0  0  0
    1.8409    1.4716    0.0000 C   0  0  0  0  0  0  0  0  0  0  0  0
    3.3405    1.4360    0.0000 C   0  0  0  0  0  0  0  0  0  0  0  0
    3.7701   -0.0011    0.0000 C   0  0  0  0  0  0  0  0  0  0  0  0
    5.1853   -0.4983    0.0000 N   0  0  0  0  0  4  0  0  0  0  0  0
    6.3235    0.4787    0.0000 O   0  0  0  0  0  0  0  0  0  0  0  0
    5.4623   -1.9725    0.0000 O   0  0  0  0  0  1  0  0  0  0  0  0
    2.5360   -0.8538    0.0000 O   0  0  0  0  0  0  0  0  0  0  0  0
   -3.8135    1.1372    0.0000 C   0  0  0  0  0  0  0  0  0  0  0  0
   -3.7780    2.6368    0.0000 O   0  0  0  0  0  0  0  0  0  0  0  0
   -5.0476    0.2845    0.0000 N   0  0  0  0  0  0  0  0  0  0  0  0
  1  2  2  0
  2  3  1  0
  3  4  1  0
  4  5  1  0
  5  6  2  3
  6  7  1  0
  7  8  2  0
  8  9  1  0
  9 10  2  0
 10 11  1  0
 11 12  2  0
 11 13  1  0
 10 14  1  0
  4 15  1  0
 15 16  2  0
 15 17  1  0
 17  2  1  0
 14  7  1  0
M  CHG  2  11   1  13  -1
M  END
> <Identifier>
5353830.0

> <DILI>
1

$$$$

     RDKit          2D

 28 30  0  0  0  0  0  0  0  0999 V2000
    8.6886   -2.0627    0.0000 O   0  0  0  0  0  0  0  0  0  0  0  0
    7.1905   -2.1396    0.0000 C   0  0  0  0  0  0  0  0  0  0  0  0
    6.5081   -3.4753    0.0000 O   0  0  0  0  0  0  0  0  0  0  0  0
    6.3749   -0.8807    0.0000 C   0  0  0  0  0  0  0  0  0  0  0  0
    4.8769   -0.9576    0.0000 C   0  0  0  0  0  0  0  0  0  0  0  0
    4.0613    0.3013    0.0000 C   0  0  0  0  0  0  0  0  0  0  0  0
    2.5633    0.2245    0.0000 N   0  0  0  0  0  0  0  0  0  0  0  0
    1.7477    1.4834    0.0000 N   0  0  0  0  0  0  0  0  0  0  0  0
    0.2497    1.4065    0.0000 C   0  0  0  0  0  0  0  0  0  0  0  0
   -0.5659    2.6654    0.0000 C   0  0  0  0  0  0  0  0  0  0  0  0
   -2.0640    2.5885    0.0000 C   0  0  0  0  0  0  0  0  0  0  0  0
   -2.7464    1.2527    0.0000 C   0  0  0  0  0  0  0  0  0  0  0  0
   -4.2444    1.1758    0.0000 S   0  0  0  0  0  0  0  0  0  0  0  0
   -4.3213    2.6739    0.0000 O   0  0  0  0  0  0  0  0  0  0  0  0
   -4.1675   -0.3222    0.0000 O   0  0  0  0  0  0  0  0  0  0  0  0
   -5.7424    1.0990    0.0000 N   0  0  0  0  0  0  0  0  0  0  0  0
   -6.4249   -0.2368    0.0000 C   0  0  0  0  0  0  0  0  0  0  0  0
   -7.9229   -0.3137    0.0000 C   0  0  0  0  0  0  0  0  0  0  0  0
   -8.6053   -1.6495    0.0000 C   0  0  0  0  0  0  0  0  0  0  0  0
   -7.7897   -2.9084    0.0000 C   0  0  0  0  0  0  0  0  0  0  0  0
   -6.2917   -2.8315    0.0000 C   0  0  0  0  0  0  0  0  0  0  0  0
   -5.6093   -1.4957    0.0000 N   0  0  0  0  0  0  0  0  0  0  0  0
   -1.9308   -0.0062    0.0000 C   0  0  0  0  0  0  0  0  0  0  0  0
   -0.4328    0.0707    0.0000 C   0  0  0  0  0  0  0  0  0  0  0  0
    4.7438    1.6371    0.0000 C   0  0  0  0  0  0  0  0  0  0  0  0
    6.2418    1.7140    0.0000 C   0  0  0  0  0  0  0  0  0  0  0  0
    7.0574    0.4551    0.0000 C   0  0  0  0  0  0  0  0  0  0  0  0
    8.5554    0.5320    0.0000 O   0  0  0  0  0  0  0  0  0  0  0  0
  1  2  2  0
  2  3  1  0
  2  4  1  0
  4  5  2  0
  5  6  1  0
  6  7  2  3
  7  8  1  0
  8  9  1  0
  9 10  2  0
 10 11  1  0
 11 12  2  0
 12 13  1  0
 13 14  2  0
 13 15  2  0
 13 16  1  0
 16 17  1  0
 17 18  2  0
 18 19  1  0
 19 20  2  0
 20 21  1  0
 21 22  2  0
 12 23  1  0
 23 24  2  0
  6 25  1  0
 25 26  2  0
 26 27  1  0
 27 28  2  0
 27  4  1  0
 24  9  1  0
 22 17  1  0
M  END
> <Identifier>
5353980.0

> <DILI>
1

$$$$

     RDKit          2D

 20 23  0  0  0  0  0  0  0  0999 V2000
   -5.8027   -0.6415    0.0000 C   0  0  0  0  0  0  0  0  0  0  0  0
   -4.4375   -1.2629    0.0000 O   0  0  0  0  0  0  0  0  0  0  0  0
   -3.2167   -0.3913    0.0000 C   0  0  0  0  0  0  0  0  0  0  0  0
   -3.3611    1.1018    0.0000 C   0  0  0  0  0  0  0  0  0  0  0  0
   -2.1404    1.9734    0.0000 C   0  0  0  0  0  0  0  0  0  0  0  0
   -0.7751    1.3519    0.0000 C   0  0  0  0  0  0  0  0  0  0  0  0
   -0.6307   -0.1411    0.0000 C   0  0  0  0  0  0  0  0  0  0  0  0
   -1.8515   -1.0127    0.0000 C   0  0  0  0  0  0  0  0  0  0  0  0
    0.7345   -0.7625    0.0000 C   0  0  0  0  0  0  0  0  0  0  0  0
    0.8790   -2.2556    0.0000 C   0  0  0  0  0  0  0  0  0  0  0  0
    2.2442   -2.8770    0.0000 C   0  0  0  0  0  0  0  0  0  0  0  0
    3.4650   -2.0054    0.0000 C   0  0  0  0  0  0  0  0  0  0  0  0
    3.3205   -0.5124    0.0000 C   0  0  0  0  0  0  0  0  0  0  0  0
    1.9553    0.1091    0.0000 C   0  0  0  0  0  0  0  0  0  0  0  0
    1.8109    1.6021    0.0000 C   0  0  0  0  0  0  0  0  0  0  0  0
    0.4456    2.2235    0.0000 C   0  0  0  0  0  0  0  0  0  0  0  0
    1.0464    1.2364    0.0000 N   0  0  0  0  0  0  0  0  0  0  0  0
    4.3969    1.8523    0.0000 C   0  0  0  0  0  0  0  0  0  0  0  0
    1.4092    0.3576    0.0000 C   0  0  0  0  0  0  0  0  0  0  0  0
    0.5083    0.0541    0.0000 C   0  0  0  0  0  0  0  0  0  0  0  0
  1  2  1  0
  2  3  1  0
  3  4  2  0
  4  5  1  0
  5  6  2  0
  6  7  1  0
  7  8  2  0
  7  9  1  0
  9 10  1  0
 10 11  1  0
 11 12  1  0
 12 13  1  0
 13 14  1  0
 14 15  1  0
 15 16  1  0
 15 17  1  0
 17 18  1  0
 17 19  1  0
 19 20  1  0
  8  3  1  0
 14  9  1  0
 16  6  1  0
 20  9  1  0
M  END
> <Identifier>
5360696.0

> <DILI>
0

$$$$

     RDKit          2D

 36 39  0  0  0  0  0  0  0  0999 V2000
   -8.6929   -3.1266    0.0000 C   0  0  0  0  0  0  0  0  0  0  0  0
   -7.9983   -1.7972    0.0000 O   0  0  0  0  0  0  0  0  0  0  0  0
   -6.4996   -1.7340    0.0000 N   0  0  0  0  0  0  0  0  0  0  0  0
   -5.8050   -0.4045    0.0000 C   0  0  0  0  0  0  0  0  0  0  0  0
   -4.3064   -0.3413    0.0000 C   0  0  0  0  0  0  0  0  0  0  0  0
   -3.6118    0.9882    0.0000 O   0  0  0  0  0  0  0  0  0  0  0  0
   -3.5023   -1.6075    0.0000 N   0  0  0  0  0  0  0  0  0  0  0  0
   -2.0036   -1.5443    0.0000 C   0  0  0  0  0  0  0  0  0  0  0  0
   -0.8992   -2.5594    0.0000 C   0  0  0  0  0  0  0  0  0  0  0  0
   -0.8360   -4.0580    0.0000 O   0  0  0  0  0  0  0  0  0  0  0  0
    0.1158   -1.4549    0.0000 N   0  0  0  0  0  0  0  0  0  0  0  0
    1.5471   -1.0060    0.0000 C   0  0  0  0  0  0  0  0  0  0  0  0
    2.6515   -2.0210    0.0000 C   0  0  0  0  0  0  0  0  0  0  0  0
    4.0827   -1.5721    0.0000 O   0  0  0  0  0  0  0  0  0  0  0  0
    2.3246   -3.4850    0.0000 O   0  0  0  0  0  0  0  0  0  0  0  0
    1.8739    0.4579    0.0000 C   0  0  0  0  0  0  0  0  0  0  0  0
    3.3051    0.9069    0.0000 C   0  0  0  0  0  0  0  0  0  0  0  0
    4.4095   -0.1081    0.0000 S   0  0  0  0  0  0  0  0  0  0  0  0
    5.8408    0.3408    0.0000 C   0  0  0  0  0  0  0  0  0  0  0  0
    6.9452   -0.6742    0.0000 N   0  0  0  0  0  0  0  0  0  0  0  0
    8.3764   -0.2253    0.0000 C   0  0  0  0  0  0  0  0  0  0  0  0
    9.4808   -1.2403    0.0000 O   0  0  0  0  0  0  0  0  0  0  0  0
    8.7033    1.2387    0.0000 C   0  0  0  0  0  0  0  0  0  0  0  0
   10.1345    1.6876    0.0000 O   0  0  0  0  0  0  0  0  0  0  0  0
    7.5989    2.2537    0.0000 N   0  0  0  0  0  0  0  0  0  0  0  0
    6.1676    1.8048    0.0000 N   0  0  0  0  0  0  0  0  0  0  0  0
    5.0632    2.8198    0.0000 C   0  0  0  0  0  0  0  0  0  0  0  0
    0.7695    1.4730    0.0000 C   0  0  0  0  0  0  0  0  0  0  0  0
   -0.6618    1.0240    0.0000 S   0  0  0  0  0  0  0  0  0  0  0  0
   -0.9886   -0.4399    0.0000 C   0  0  0  0  0  0  0  0  0  0  0  0
   -6.6091    0.8618    0.0000 C   0  0  0  0  0  0  0  0  0  0  0  0
   -8.1062    0.9556    0.0000 C   0  0  0  0  0  0  0  0  0  0  0  0
   -8.4796    2.4084    0.0000 S   0  0  0  0  0  0  0  0  0  0  0  0
   -7.2133    3.2125    0.0000 C   0  0  0  0  0  0  0  0  0  0  0  0
   -7.1195    4.7095    0.0000 N   0  0  0  0  0  0  0  0  0  0  0  0
   -6.0573    2.2566    0.0000 N   0  0  0  0  0  0  0  0  0  0  0  0
  1  2  1  0
  2  3  1  0
  3  4  2  3
  4  5  1  0
  5  6  2  0
  5  7  1  0
  7  8  1  0
  8  9  1  0
  9 10  2  0
  9 11  1  0
 11 12  1  0
 12 13  1  0
 13 14  2  0
 13 15  1  0
 12 16  2  0
 16 17  1  0
 17 18  1  0
 18 19  1  0
 19 20  2  0
 20 21  1  0
 21 22  2  0
 21 23  1  0
 23 24  2  0
 23 25  1  0
 25 26  1  0
 26 27  1  0
 16 28  1  0
 28 29  1  0
 29 30  1  0
  4 31  1  0
 31 32  2  0
 32 33  1  0
 33 34  1  0
 34 35  1  0
 34 36  2  0
 30  8  1  0
 36 31  1  0
 30 11  1  0
 26 19  1  0
M  END
> <Identifier>
5361919.0

> <DILI>
1

$$$$

     RDKit          2D

 31 33  0  0  0  0  0  0  0  0999 V2000
   -3.8929   -4.5060    0.0000 C   0  0  0  0  0  0  0  0  0  0  0  0
   -2.6798   -3.6236    0.0000 C   0  0  0  0  0  0  0  0  0  0  0  0
   -2.8374   -2.1319    0.0000 O   0  0  0  0  0  0  0  0  0  0  0  0
   -1.6244   -1.2496    0.0000 C   0  0  0  0  0  0  0  0  0  0  0  0
   -0.2537   -1.8590    0.0000 O   0  0  0  0  0  0  0  0  0  0  0  0
   -1.7819    0.2421    0.0000 C   0  0  0  0  0  0  0  0  0  0  0  0
   -3.1526    0.8515    0.0000 C   0  0  0  0  0  0  0  0  0  0  0  0
   -4.3656   -0.0309    0.0000 C   0  0  0  0  0  0  0  0  0  0  0  0
   -5.7363    0.5785    0.0000 C   0  0  0  0  0  0  0  0  0  0  0  0
   -6.9493   -0.3038    0.0000 C   0  0  0  0  0  0  0  0  0  0  0  0
   -8.3200    0.3056    0.0000 C   0  0  0  0  0  0  0  0  0  0  0  0
   -8.4776    1.7973    0.0000 C   0  0  0  0  0  0  0  0  0  0  0  0
   -7.2645    2.6796    0.0000 C   0  0  0  0  0  0  0  0  0  0  0  0
   -5.8939    2.0702    0.0000 C   0  0  0  0  0  0  0  0  0  0  0  0
   -0.5689    1.1244    0.0000 N   0  0  0  0  0  0  0  0  0  0  0  0
    0.8018    0.5150    0.0000 C   0  0  0  0  0  0  0  0  0  0  0  0
    0.8474   -0.9843    0.0000 C   0  0  0  0  0  0  0  0  0  0  0  0
    2.0481   -1.8834    0.0000 C   0  0  0  0  0  0  0  0  0  0  0  0
    3.4997   -1.5052    0.0000 C   0  0  0  0  0  0  0  0  0  0  0  0
    4.3820   -2.7183    0.0000 C   0  0  0  0  0  0  0  0  0  0  0  0
    5.8737   -2.5607    0.0000 C   0  0  0  0  0  0  0  0  0  0  0  0
    6.4830   -1.1901    0.0000 C   0  0  0  0  0  0  0  0  0  0  0  0
    5.6007    0.0230    0.0000 C   0  0  0  0  0  0  0  0  0  0  0  0
    4.1090   -0.1346    0.0000 C   0  0  0  0  0  0  0  0  0  0  0  0
    3.4174    1.1964    0.0000 N   0  0  0  0  0  0  0  0  0  0  0  0
    4.3165    2.3971    0.0000 C   0  0  0  0  0  0  0  0  0  0  0  0
    5.8058    2.2188    0.0000 C   0  0  0  0  0  0  0  0  0  0  0  0
    6.3961    0.8398    0.0000 O   0  0  0  0  0  0  0  0  0  0  0  0
    6.7049    3.4195    0.0000 O   0  0  0  0  0  0  0  0  0  0  0  0
    1.9455    1.4855    0.0000 C   0  0  0  0  0  0  0  0  0  0  0  0
    1.5673    2.9371    0.0000 O   0  0  0  0  0  0  0  0  0  0  0  0
  1  2  1  0
  2  3  1  0
  3  4  1  0
  4  5  2  0
  4  6  1  0
  6  7  1  0
  7  8  1  0
  8  9  1  0
  9 10  2  0
 10 11  1  0
 11 12  2  0
 12 13  1  0
 13 14  2  0
  6 15  1  0
 15 16  1  0
 16 17  1  0
 17 18  1  0
 18 19  1  0
 19 20  2  0
 20 21  1  0
 21 22  2  0
 22 23  1  0
 23 24  2  0
 24 25  1  0
 25 26  1  0
 26 27  1  0
 27 28  2  0
 27 29  1  0
 25 30  1  0
 30 31  2  0
 14  9  1  0
 30 16  1  0
 24 19  1  0
M  END
> <Identifier>
5362124.0

> <DILI>
1

$$$$

     RDKit          2D

 45 49  0  0  0  0  0  0  0  0999 V2000
   -4.8124   -6.4182    0.0000 C   0  0  0  0  0  0  0  0  0  0  0  0
   -3.4262   -5.8451    0.0000 C   0  0  0  0  0  0  0  0  0  0  0  0
   -2.0400   -5.2721    0.0000 C   0  0  0  0  0  0  0  0  0  0  0  0
   -2.8531   -7.2314    0.0000 C   0  0  0  0  0  0  0  0  0  0  0  0
   -3.9993   -4.4589    0.0000 N   0  0  0  0  0  0  0  0  0  0  0  0
   -3.0853   -3.2695    0.0000 C   0  0  0  0  0  0  0  0  0  0  0  0
   -1.5983   -3.4663    0.0000 O   0  0  0  0  0  0  0  0  0  0  0  0
   -3.6584   -1.8833    0.0000 C   0  0  0  0  0  0  0  0  0  0  0  0
   -5.1454   -1.6865    0.0000 C   0  0  0  0  0  0  0  0  0  0  0  0
   -5.7185   -0.3003    0.0000 N   0  0  0  0  0  0  0  0  0  0  0  0
   -7.2056   -0.1035    0.0000 C   0  0  0  0  0  0  0  0  0  0  0  0
   -7.7786    1.2827    0.0000 C   0  0  0  0  0  0  0  0  0  0  0  0
   -6.8647    2.4721    0.0000 C   0  0  0  0  0  0  0  0  0  0  0  0
   -7.4378    3.8583    0.0000 C   0  0  0  0  0  0  0  0  0  0  0  0
   -8.9248    4.0551    0.0000 C   0  0  0  0  0  0  0  0  0  0  0  0
   -9.8388    2.8657    0.0000 N   0  0  0  0  0  0  0  0  0  0  0  0
   -9.2657    1.4795    0.0000 C   0  0  0  0  0  0  0  0  0  0  0  0
   -4.8046    0.8891    0.0000 C   0  0  0  0  0  0  0  0  0  0  0  0
   -3.3175    0.6923    0.0000 C   0  0  0  0  0  0  0  0  0  0  0  0
   -2.7445   -0.6939    0.0000 N   0  0  0  0  0  0  0  0  0  0  0  0
   -1.2574   -0.8907    0.0000 C   0  0  0  0  0  0  0  0  0  0  0  0
   -0.3435    0.2987    0.0000 C   0  0  0  0  0  0  0  0  0  0  0  0
   -0.9166    1.6849    0.0000 O   0  0  0  0  0  0  0  0  0  0  0  0
    1.1436    0.1019    0.0000 C   0  0  0  0  0  0  0  0  0  0  0  0
    2.0575    1.2913    0.0000 C   0  0  0  0  0  0  0  0  0  0  0  0
    1.4844    2.6775    0.0000 C   0  0  0  0  0  0  0  0  0  0  0  0
    2.3984    3.8669    0.0000 C   0  0  0  0  0  0  0  0  0  0  0  0
    3.8854    3.6701    0.0000 C   0  0  0  0  0  0  0  0  0  0  0  0
    4.7993    4.8596    0.0000 C   0  0  0  0  0  0  0  0  0  0  0  0
    4.2263    6.2458    0.0000 C   0  0  0  0  0  0  0  0  0  0  0  0
    2.7392    6.4426    0.0000 C   0  0  0  0  0  0  0  0  0  0  0  0
    1.8253    5.2531    0.0000 C   0  0  0  0  0  0  0  0  0  0  0  0
    3.5445    1.0945    0.0000 C   0  0  0  0  0  0  0  0  0  0  0  0
    4.4585    2.2839    0.0000 O   0  0  0  0  0  0  0  0  0  0  0  0
    4.1176   -0.2917    0.0000 N   0  0  0  0  0  0  0  0  0  0  0  0
    5.6047   -0.4885    0.0000 C   0  0  0  0  0  0  0  0  0  0  0  0
    6.3195   -1.8072    0.0000 C   0  0  0  0  0  0  0  0  0  0  0  0
    5.8178   -3.2208    0.0000 C   0  0  0  0  0  0  0  0  0  0  0  0
    6.7912   -4.3621    0.0000 C   0  0  0  0  0  0  0  0  0  0  0  0
    8.2663   -4.0897    0.0000 C   0  0  0  0  0  0  0  0  0  0  0  0
    8.7680   -2.6761    0.0000 C   0  0  0  0  0  0  0  0  0  0  0  0
    7.7946   -1.5348    0.0000 C   0  0  0  0  0  0  0  0  0  0  0  0
    7.9914   -0.0478    0.0000 C   0  0  0  0  0  0  0  0  0  0  0  0
    6.6379    0.5989    0.0000 C   0  0  0  0  0  0  0  0  0  0  0  0
    6.3656    2.0739    0.0000 O   0  0  0  0  0  0  0  0  0  0  0  0
  1  2  1  0
  2  3  1  0
  2  4  1  0
  2  5  1  0
  5  6  1  0
  6  7  2  0
  6  8  1  0
  8  9  1  0
  9 10  1  0
 10 11  1  0
 11 12  1  0
 12 13  2  0
 13 14  1  0
 14 15  2  0
 15 16  1  0
 16 17  2  0
 10 18  1  0
 18 19  1  0
 19 20  1  0
 20 21  1  0
 21 22  1  0
 22 23  1  0
 22 24  1  0
 24 25  1  0
 25 26  1  0
 26 27  1  0
 27 28  2  0
 28 29  1  0
 29 30  2  0
 30 31  1  0
 31 32  2  0
 25 33  1  0
 33 34  2  0
 33 35  1  0
 35 36  1  0
 36 37  1  0
 37 38  2  0
 38 39  1  0
 39 40  2  0
 40 41  1  0
 41 42  2  0
 42 43  1  0
 43 44  1  0
 44 45  1  0
 20  8  1  0
 32 27  1  0
 44 36  1  0
 17 12  1  0
 42 37  1  0
M  END
> <Identifier>
5362440.0

> <DILI>
1

$$$$

     RDKit          2D

 59 63  0  0  0  0  0  0  0  0999 V2000
    7.4293   -4.6584    0.0000 C   0  0  0  0  0  0  0  0  0  0  0  0
    7.3253   -3.1620    0.0000 O   0  0  0  0  0  0  0  0  0  0  0  0
    5.9774   -2.5039    0.0000 C   0  0  0  0  0  0  0  0  0  0  0  0
    5.1490   -3.7544    0.0000 C   0  0  0  0  0  0  0  0  0  0  0  0
    4.0251   -4.7478    0.0000 C   0  0  0  0  0  0  0  0  0  0  0  0
    2.6825   -5.4166    0.0000 O   0  0  0  0  0  0  0  0  0  0  0  0
    0.2818   -4.9054    0.0000 C   0  0  0  0  0  0  0  0  0  0  0  0
    1.7292   -5.2992    0.0000 C   0  0  0  0  0  0  0  0  0  0  0  0
   -0.8875   -5.8448    0.0000 O   0  0  0  0  0  0  0  0  0  0  0  0
   -2.1424   -5.0230    0.0000 C   0  0  0  0  0  0  0  0  0  0  0  0
   -3.5927   -5.4056    0.0000 C   0  0  0  0  0  0  0  0  0  0  0  0
   -3.9866   -6.8530    0.0000 C   0  0  0  0  0  0  0  0  0  0  0  0
   -4.6493   -4.3408    0.0000 C   0  0  0  0  0  0  0  0  0  0  0  0
   -6.0997   -4.7235    0.0000 O   0  0  0  0  0  0  0  0  0  0  0  0
   -4.2554   -2.8935    0.0000 C   0  0  0  0  0  0  0  0  0  0  0  0
   -2.8051   -2.5109    0.0000 C   0  0  0  0  0  0  0  0  0  0  0  0
   -1.7485   -3.5756    0.0000 C   0  0  0  0  0  0  0  0  0  0  0  0
   -0.2503   -3.5029    0.0000 C   0  0  0  0  0  0  0  0  0  0  0  0
    0.5715   -2.2481    0.0000 O   0  0  0  0  0  0  0  0  0  0  0  0
   -2.4112   -1.0635    0.0000 C   0  0  0  0  0  0  0  0  0  0  0  0
   -0.9608   -0.6809    0.0000 O   0  0  0  0  0  0  0  0  0  0  0  0
   -3.4678    0.0013    0.0000 C   0  0  0  0  0  0  0  0  0  0  0  0
   -3.0739    1.4486    0.0000 C   0  0  0  0  0  0  0  0  0  0  0  0
   -4.1305    2.5134    0.0000 N   0  0  0  0  0  0  0  0  0  0  0  0
   -5.5808    2.1308    0.0000 N   0  0  0  0  0  0  0  0  0  0  0  0
   -5.9747    0.6834    0.0000 C   0  0  0  0  0  0  0  0  0  0  0  0
   -7.4251    0.3008    0.0000 C   0  0  0  0  0  0  0  0  0  0  0  0
   -8.4816    1.3656    0.0000 N   0  0  0  0  0  0  0  0  0  0  0  0
   -9.9320    0.9830    0.0000 C   0  0  0  0  0  0  0  0  0  0  0  0
   -8.0878    2.8130    0.0000 C   0  0  0  0  0  0  0  0  0  0  0  0
   -6.6374    3.1956    0.0000 C   0  0  0  0  0  0  0  0  0  0  0  0
   -4.9181   -0.3813    0.0000 C   0  0  0  0  0  0  0  0  0  0  0  0
   -5.3120   -1.8287    0.0000 C   0  0  0  0  0  0  0  0  0  0  0  0
   -6.7624   -2.2113    0.0000 O   0  0  0  0  0  0  0  0  0  0  0  0
   -4.8259    1.1158    0.0000 N   0  0  0  0  0  0  0  0  0  0  0  0
   -4.3494    2.5381    0.0000 C   0  0  0  0  0  0  0  0  0  0  0  0
   -5.6973    3.1962    0.0000 O   0  0  0  0  0  0  0  0  0  0  0  0
   -3.5210    3.7886    0.0000 C   0  0  0  0  0  0  0  0  0  0  0  0
   -4.6526    4.7732    0.0000 C   0  0  0  0  0  0  0  0  0  0  0  0
   -2.3971    4.7821    0.0000 C   0  0  0  0  0  0  0  0  0  0  0  0
   -1.0545    5.4508    0.0000 C   0  0  0  0  0  0  0  0  0  0  0  0
    0.4156    5.7493    0.0000 C   0  0  0  0  0  0  0  0  0  0  0  0
    1.9127    5.6571    0.0000 C   0  0  0  0  0  0  0  0  0  0  0  0
    2.1995    7.1294    0.0000 C   0  0  0  0  0  0  0  0  0  0  0  0
    3.3350    5.1805    0.0000 C   0  0  0  0  0  0  0  0  0  0  0  0
    3.9931    6.5284    0.0000 O   0  0  0  0  0  0  0  0  0  0  0  0
    4.5855    4.3521    0.0000 C   0  0  0  0  0  0  0  0  0  0  0  0
    5.5701    5.4838    0.0000 C   0  0  0  0  0  0  0  0  0  0  0  0
    5.5790    3.2282    0.0000 C   0  0  0  0  0  0  0  0  0  0  0  0
    6.8229    4.0665    0.0000 O   0  0  0  0  0  0  0  0  0  0  0  0
    6.2477    1.8856    0.0000 C   0  0  0  0  0  0  0  0  0  0  0  0
    7.6662    2.3733    0.0000 C   0  0  0  0  0  0  0  0  0  0  0  0
    6.5461    0.4156    0.0000 C   0  0  0  0  0  0  0  0  0  0  0  0
    8.0425    0.5196    0.0000 O   0  0  0  0  0  0  0  0  0  0  0  0
    8.8808   -0.7243    0.0000 C   0  0  0  0  0  0  0  0  0  0  0  0
   10.3772   -0.6203    0.0000 C   0  0  0  0  0  0  0  0  0  0  0  0
    8.3919   -2.1424    0.0000 O   0  0  0  0  0  0  0  0  0  0  0  0
    6.4540   -1.0816    0.0000 C   0  0  0  0  0  0  0  0  0  0  0  0
    7.8803   -1.5458    0.0000 C   0  0  0  0  0  0  0  0  0  0  0  0
  1  2  1  0
  2  3  1  0
  3  4  1  0
  4  5  2  3
  5  6  1  0
  6  7  1  0
  7  8  1  0
  7  9  1  0
  9 10  1  0
 10 11  2  0
 11 12  1  0
 11 13  1  0
 13 14  1  0
 13 15  2  0
 15 16  1  0
 16 17  2  0
 17 18  1  0
 18 19  2  0
 16 20  1  0
 20 21  2  0
 20 22  1  0
 22 23  2  3
 23 24  1  0
 24 25  1  0
 25 26  1  0
 26 27  1  0
 27 28  1  0
 28 29  1  0
 28 30  1  0
 30 31  1  0
 22 32  1  0
 32 33  2  0
 33 34  1  0
 32 35  1  0
 35 36  1  0
 36 37  2  0
 36 38  1  0
 38 39  1  0
 38 40  2  3
 40 41  1  0
 41 42  2  3
 42 43  1  0
 43 44  1  0
 43 45  1  0
 45 46  1  0
 45 47  1  0
 47 48  1  0
 47 49  1  0
 49 50  1  0
 49 51  1  0
 51 52  1  0
 51 53  1  0
 53 54  1  0
 54 55  1  0
 55 56  1  0
 55 57  2  0
 53 58  1  0
 58 59  1  0
 58  3  1  0
 18  7  1  0
 31 25  1  0
 17 10  1  0
 33 15  1  0
M  END
> <Identifier>
5381226.0

> <DILI>
1

$$$$

     RDKit          2D

 58 62  0  0  0  0  0  0  0  0999 V2000
   -0.7745   -7.4445    0.0000 C   0  0  0  0  0  0  0  0  0  0  0  0
   -0.0322   -6.1411    0.0000 C   0  0  0  0  0  0  0  0  0  0  0  0
   -0.7898   -4.8465    0.0000 C   0  0  0  0  0  0  0  0  0  0  0  0
   -2.2206   -5.2970    0.0000 O   0  0  0  0  0  0  0  0  0  0  0  0
   -3.7051   -5.0822    0.0000 C   0  0  0  0  0  0  0  0  0  0  0  0
   -4.2449   -6.4818    0.0000 O   0  0  0  0  0  0  0  0  0  0  0  0
   -4.9494   -4.2446    0.0000 C   0  0  0  0  0  0  0  0  0  0  0  0
   -6.0430   -5.2713    0.0000 C   0  0  0  0  0  0  0  0  0  0  0  0
   -5.7071   -2.9500    0.0000 C   0  0  0  0  0  0  0  0  0  0  0  0
   -7.1378   -3.4006    0.0000 O   0  0  0  0  0  0  0  0  0  0  0  0
   -5.8280   -1.4549    0.0000 C   0  0  0  0  0  0  0  0  0  0  0  0
   -7.3125   -1.2401    0.0000 C   0  0  0  0  0  0  0  0  0  0  0  0
   -5.2882   -0.0554    0.0000 C   0  0  0  0  0  0  0  0  0  0  0  0
   -6.5326    0.7823    0.0000 O   0  0  0  0  0  0  0  0  0  0  0  0
   -6.4293    2.2787    0.0000 C   0  0  0  0  0  0  0  0  0  0  0  0
   -5.0817    2.9375    0.0000 O   0  0  0  0  0  0  0  0  0  0  0  0
   -4.9784    4.4340    0.0000 C   0  0  0  0  0  0  0  0  0  0  0  0
   -3.6308    5.0928    0.0000 C   0  0  0  0  0  0  0  0  0  0  0  0
   -6.2228    5.2716    0.0000 C   0  0  0  0  0  0  0  0  0  0  0  0
   -7.5703    4.6128    0.0000 C   0  0  0  0  0  0  0  0  0  0  0  0
   -8.8147    5.4505    0.0000 N   0  0  0  0  0  0  0  0  0  0  0  0
   -8.7114    6.9469    0.0000 C   0  0  0  0  0  0  0  0  0  0  0  0
  -10.1623    4.7917    0.0000 C   0  0  0  0  0  0  0  0  0  0  0  0
   -7.6736    3.1164    0.0000 C   0  0  0  0  0  0  0  0  0  0  0  0
   -9.0212    2.4576    0.0000 O   0  0  0  0  0  0  0  0  0  0  0  0
   -4.1947    0.9714    0.0000 C   0  0  0  0  0  0  0  0  0  0  0  0
   -5.5500    1.6142    0.0000 C   0  0  0  0  0  0  0  0  0  0  0  0
   -4.0914    2.4678    0.0000 O   0  0  0  0  0  0  0  0  0  0  0  0
   -2.7438    3.1266    0.0000 C   0  0  0  0  0  0  0  0  0  0  0  0
   -2.7640    1.4220    0.0000 C   0  0  0  0  0  0  0  0  0  0  0  0
   -1.2794    1.2071    0.0000 C   0  0  0  0  0  0  0  0  0  0  0  0
   -0.7397    2.6067    0.0000 C   0  0  0  0  0  0  0  0  0  0  0  0
   -0.0351    0.3695    0.0000 C   0  0  0  0  0  0  0  0  0  0  0  0
    1.0584    1.3962    0.0000 O   0  0  0  0  0  0  0  0  0  0  0  0
    0.7225   -0.9251    0.0000 C   0  0  0  0  0  0  0  0  0  0  0  0
    2.1533   -0.4745    0.0000 C   0  0  0  0  0  0  0  0  0  0  0  0
    0.8435   -2.4202    0.0000 C   0  0  0  0  0  0  0  0  0  0  0  0
    2.3413   -2.5011    0.0000 N   0  0  0  0  0  0  0  0  0  0  0  0
    3.2871   -1.3369    0.0000 C   0  0  0  0  0  0  0  0  0  0  0  0
    4.7683   -1.5739    0.0000 C   0  0  0  0  0  0  0  0  0  0  0  0
    5.7141   -0.4096    0.0000 C   0  0  0  0  0  0  0  0  0  0  0  0
    7.1952   -0.6466    0.0000 C   0  0  0  0  0  0  0  0  0  0  0  0
    8.1411    0.5176    0.0000 N   0  0  0  0  0  0  0  0  0  0  0  0
    7.7551    1.9671    0.0000 C   0  0  0  0  0  0  0  0  0  0  0  0
    9.0144    2.7821    0.0000 N   0  0  0  0  0  0  0  0  0  0  0  0
   10.1786    1.8363    0.0000 C   0  0  0  0  0  0  0  0  0  0  0  0
   11.6281    2.2222    0.0000 C   0  0  0  0  0  0  0  0  0  0  0  0
   12.6871    1.1599    0.0000 C   0  0  0  0  0  0  0  0  0  0  0  0
   14.1366    1.5458    0.0000 C   0  0  0  0  0  0  0  0  0  0  0  0
   14.5271    2.9941    0.0000 C   0  0  0  0  0  0  0  0  0  0  0  0
   13.4682    4.0564    0.0000 N   0  0  0  0  0  0  0  0  0  0  0  0
   12.0187    3.6705    0.0000 C   0  0  0  0  0  0  0  0  0  0  0  0
    9.6389    0.4367    0.0000 C   0  0  0  0  0  0  0  0  0  0  0  0
    2.7272   -3.9506    0.0000 C   0  0  0  0  0  0  0  0  0  0  0  0
    4.1267   -4.4904    0.0000 O   0  0  0  0  0  0  0  0  0  0  0  0
    1.4679   -4.7656    0.0000 O   0  0  0  0  0  0  0  0  0  0  0  0
    0.3037   -3.8197    0.0000 C   0  0  0  0  0  0  0  0  0  0  0  0
    0.3574   -5.3188    0.0000 C   0  0  0  0  0  0  0  0  0  0  0  0
  1  2  1  0
  2  3  1  0
  3  4  1  0
  4  5  1  0
  5  6  2  0
  5  7  1  0
  7  8  1  0
  7  9  1  0
  9 10  2  0
  9 11  1  0
 11 12  1  0
 11 13  1  0
 13 14  1  0
 14 15  1  0
 15 16  1  0
 16 17  1  0
 17 18  1  0
 17 19  1  0
 19 20  1  0
 20 21  1  0
 21 22  1  0
 21 23  1  0
 20 24  1  0
 24 25  1  0
 13 26  1  0
 26 27  1  0
 26 28  1  0
 28 29  1  0
 26 30  1  0
 30 31  1  0
 31 32  1  0
 31 33  1  0
 33 34  2  0
 33 35  1  0
 35 36  1  0
 35 37  1  0
 37 38  1  0
 38 39  1  0
 39 40  1  0
 40 41  1  0
 41 42  1  0
 42 43  1  0
 43 44  1  0
 44 45  2  0
 45 46  1  0
 46 47  1  0
 47 48  2  0
 48 49  1  0
 49 50  2  0
 50 51  1  0
 51 52  2  0
 46 53  2  0
 38 54  1  0
 54 55  2  0
 54 56  1  0
 56 57  1  0
 57 58  1  0
 57  3  1  0
 24 15  1  0
 57 37  1  0
 53 43  1  0
 52 47  1  0
M  END
> <Identifier>
5462516.0

> <DILI>
1

$$$$

     RDKit          2D

 27 29  0  0  0  0  0  0  0  0999 V2000
   -9.3538   -3.3405    0.0000 C   0  0  0  0  0  0  0  0  0  0  0  0
   -8.9265   -1.9026    0.0000 O   0  0  0  0  0  0  0  0  0  0  0  0
   -7.4677   -1.5537    0.0000 N   0  0  0  0  0  0  0  0  0  0  0  0
   -7.0404   -0.1158    0.0000 C   0  0  0  0  0  0  0  0  0  0  0  0
   -8.0720    0.9731    0.0000 N   0  0  0  0  0  0  0  0  0  0  0  0
   -5.5816    0.2331    0.0000 C   0  0  0  0  0  0  0  0  0  0  0  0
   -5.1543    1.6709    0.0000 C   0  0  0  0  0  0  0  0  0  0  0  0
   -3.6955    2.0199    0.0000 C   0  0  0  0  0  0  0  0  0  0  0  0
   -2.6639    0.9309    0.0000 C   0  0  0  0  0  0  0  0  0  0  0  0
   -1.2050    1.2798    0.0000 C   0  0  0  0  0  0  0  0  0  0  0  0
   -0.6298    2.6652    0.0000 C   0  0  0  0  0  0  0  0  0  0  0  0
    0.8655    2.5462    0.0000 C   0  0  0  0  0  0  0  0  0  0  0  0
    1.2144    1.0873    0.0000 C   0  0  0  0  0  0  0  0  0  0  0  0
    2.5997    0.5121    0.0000 C   0  0  0  0  0  0  0  0  0  0  0  0
    2.7942   -0.9752    0.0000 C   0  0  0  0  0  0  0  0  0  0  0  0
    4.1796   -1.5504    0.0000 C   0  0  0  0  0  0  0  0  0  0  0  0
    5.3704   -0.6383    0.0000 C   0  0  0  0  0  0  0  0  0  0  0  0
    6.7557   -1.2135    0.0000 C   0  0  0  0  0  0  0  0  0  0  0  0
    6.9502   -2.7009    0.0000 N   0  0  0  0  0  0  0  0  0  0  0  0
    7.9465   -0.3014    0.0000 N   0  0  0  0  0  0  0  0  0  0  0  0
    9.3318   -0.8766    0.0000 O   0  0  0  0  0  0  0  0  0  0  0  0
   10.5226    0.0355    0.0000 C   0  0  0  0  0  0  0  0  0  0  0  0
    5.1759    0.8490    0.0000 C   0  0  0  0  0  0  0  0  0  0  0  0
    3.7905    1.4242    0.0000 C   0  0  0  0  0  0  0  0  0  0  0  0
   -0.0652    0.3047    0.0000 O   0  0  0  0  0  0  0  0  0  0  0  0
   -3.0911   -0.5070    0.0000 C   0  0  0  0  0  0  0  0  0  0  0  0
   -4.5500   -0.8559    0.0000 C   0  0  0  0  0  0  0  0  0  0  0  0
  1  2  1  0
  2  3  1  0
  3  4  2  3
  4  5  1  0
  4  6  1  0
  6  7  2  0
  7  8  1  0
  8  9  2  0
  9 10  1  0
 10 11  2  0
 11 12  1  0
 12 13  2  0
 13 14  1  0
 14 15  2  0
 15 16  1  0
 16 17  2  0
 17 18  1  0
 18 19  1  0
 18 20  2  3
 20 21  1  0
 21 22  1  0
 17 23  1  0
 23 24  2  0
 13 25  1  0
  9 26  1  0
 26 27  2  0
 27  6  1  0
 25 10  1  0
 24 14  1  0
M  END
> <Identifier>
5480200.0

> <DILI>
1

$$$$

     RDKit          2D

 11 10  0  0  0  0  0  0  0  0999 V2000
   -4.0647    0.8891    0.0000 C   0  0  0  0  0  0  0  0  0  0  0  0
   -2.7298    0.2049    0.0000 C   0  0  0  0  0  0  0  0  0  0  0  0
   -2.6549   -1.2932    0.0000 C   0  0  0  0  0  0  0  0  0  0  0  0
   -1.4698    1.0188    0.0000 C   0  0  0  0  0  0  0  0  0  0  0  0
   -0.1350    0.3346    0.0000 C   0  0  0  0  0  0  0  0  0  0  0  0
   -0.0601   -1.1635    0.0000 C   0  0  0  0  0  0  0  0  0  0  0  0
    1.2748   -1.8478    0.0000 N   0  0  0  0  0  0  0  0  0  0  0  0
    1.1250    1.1485    0.0000 C   0  0  0  0  0  0  0  0  0  0  0  0
    2.4599    0.4643    0.0000 C   0  0  0  0  0  0  0  0  0  0  0  0
    2.5347   -1.0339    0.0000 O   0  0  0  0  0  0  0  0  0  0  0  0
    3.7199    1.2782    0.0000 O   0  0  0  0  0  0  0  0  0  0  0  0
  1  2  1  0
  2  3  1  0
  2  4  1  0
  4  5  1  0
  5  6  1  0
  6  7  1  0
  5  8  1  0
  8  9  1  0
  9 10  2  0
  9 11  1  0
M  END
> <Identifier>
5486971.0

> <DILI>
0

$$$$

     RDKit          2D

 31 33  0  0  0  0  0  0  0  0999 V2000
    4.6587   -1.8427    0.0000 C   0  0  0  0  0  0  0  0  0  0  0  0
    3.3152   -1.1756    0.0000 C   0  0  0  0  0  0  0  0  0  0  0  0
    2.0657   -2.0055    0.0000 C   0  0  0  0  0  0  0  0  0  0  0  0
    0.7222   -1.3384    0.0000 N   0  0  0  0  0  0  0  0  0  0  0  0
   -0.5273   -2.1683    0.0000 C   0  0  0  0  0  0  0  0  0  0  0  0
   -1.8707   -1.5012    0.0000 C   0  0  0  0  0  0  0  0  0  0  0  0
   -3.1202   -2.3311    0.0000 C   0  0  0  0  0  0  0  0  0  0  0  0
   -4.4637   -1.6639    0.0000 C   0  0  0  0  0  0  0  0  0  0  0  0
   -4.5577   -0.1669    0.0000 C   0  0  0  0  0  0  0  0  0  0  0  0
   -5.9012    0.5002    0.0000 C   0  0  0  0  0  0  0  0  0  0  0  0
   -7.1507   -0.3297    0.0000 C   0  0  0  0  0  0  0  0  0  0  0  0
   -7.0567   -1.8267    0.0000 C   0  0  0  0  0  0  0  0  0  0  0  0
   -5.7132   -2.4939    0.0000 C   0  0  0  0  0  0  0  0  0  0  0  0
   -1.9647   -0.0041    0.0000 C   0  0  0  0  0  0  0  0  0  0  0  0
   -0.7152    0.8258    0.0000 O   0  0  0  0  0  0  0  0  0  0  0  0
   -3.3082    0.6630    0.0000 N   0  0  0  0  0  0  0  0  0  0  0  0
   -3.4022    2.1601    0.0000 C   0  0  0  0  0  0  0  0  0  0  0  0
   -4.7456    2.8272    0.0000 C   0  0  0  0  0  0  0  0  0  0  0  0
   -5.9951    1.9973    0.0000 O   0  0  0  0  0  0  0  0  0  0  0  0
   -4.8396    4.3243    0.0000 O   0  0  0  0  0  0  0  0  0  0  0  0
    0.6283    0.1587    0.0000 C   0  0  0  0  0  0  0  0  0  0  0  0
    1.8778    0.9886    0.0000 C   0  0  0  0  0  0  0  0  0  0  0  0
    3.2212    0.3215    0.0000 C   0  0  0  0  0  0  0  0  0  0  0  0
    3.6449    1.7604    0.0000 C   0  0  0  0  0  0  0  0  0  0  0  0
    4.7119    0.1540    0.0000 C   0  0  0  0  0  0  0  0  0  0  0  0
    5.3122   -1.2206    0.0000 C   0  0  0  0  0  0  0  0  0  0  0  0
    6.8028   -1.3880    0.0000 C   0  0  0  0  0  0  0  0  0  0  0  0
    7.6931   -0.1808    0.0000 C   0  0  0  0  0  0  0  0  0  0  0  0
    7.0928    1.1939    0.0000 C   0  0  0  0  0  0  0  0  0  0  0  0
    7.9831    2.4011    0.0000 O   0  0  0  0  0  0  0  0  0  0  0  0
    5.6022    1.3613    0.0000 C   0  0  0  0  0  0  0  0  0  0  0  0
  1  2  1  0
  2  3  1  0
  3  4  1  0
  4  5  1  0
  5  6  1  0
  6  7  1  0
  7  8  1  0
  8  9  2  0
  9 10  1  0
 10 11  2  0
 11 12  1  0
 12 13  2  0
  6 14  1  0
 14 15  2  0
 14 16  1  0
 16 17  1  0
 17 18  1  0
 18 19  2  0
 18 20  1  0
  4 21  1  0
 21 22  1  0
 22 23  1  0
 23 24  1  0
 23 25  1  0
 25 26  2  0
 26 27  1  0
 27 28  2  0
 28 29  1  0
 29 30  1  0
 29 31  2  0
 23  2  1  0
 31 25  1  0
 13  8  1  0
M  END
> <Identifier>
5488548.0

> <DILI>
0

$$$$

     RDKit          2D

 28 31  0  0  0  0  0  0  0  0999 V2000
   -3.1783   -3.1721    0.0000 O   0  0  0  0  0  0  0  0  0  0  0  0
   -4.2637   -2.1368    0.0000 C   0  0  0  0  0  0  0  0  0  0  0  0
   -5.7030   -2.5591    0.0000 C   0  0  0  0  0  0  0  0  0  0  0  0
   -6.7884   -1.5238    0.0000 C   0  0  0  0  0  0  0  0  0  0  0  0
   -6.4345   -0.0662    0.0000 C   0  0  0  0  0  0  0  0  0  0  0  0
   -4.9952    0.3562    0.0000 C   0  0  0  0  0  0  0  0  0  0  0  0
   -3.9098   -0.6792    0.0000 C   0  0  0  0  0  0  0  0  0  0  0  0
   -2.4705   -0.2568    0.0000 C   0  0  0  0  0  0  0  0  0  0  0  0
   -1.9661    1.1559    0.0000 N   0  0  0  0  0  0  0  0  0  0  0  0
   -0.4667    1.1128    0.0000 C   0  0  0  0  0  0  0  0  0  0  0  0
    0.4494    2.3004    0.0000 C   0  0  0  0  0  0  0  0  0  0  0  0
    1.9361    2.1008    0.0000 C   0  0  0  0  0  0  0  0  0  0  0  0
    2.8523    3.2885    0.0000 C   0  0  0  0  0  0  0  0  0  0  0  0
    2.2818    4.6758    0.0000 C   0  0  0  0  0  0  0  0  0  0  0  0
    0.7952    4.8754    0.0000 C   0  0  0  0  0  0  0  0  0  0  0  0
   -0.1210    3.6877    0.0000 C   0  0  0  0  0  0  0  0  0  0  0  0
   -1.6077    3.8873    0.0000 O   0  0  0  0  0  0  0  0  0  0  0  0
   -0.0444   -0.3266    0.0000 N   0  0  0  0  0  0  0  0  0  0  0  0
    1.3683   -0.8309    0.0000 C   0  0  0  0  0  0  0  0  0  0  0  0
    1.6378   -2.3065    0.0000 C   0  0  0  0  0  0  0  0  0  0  0  0
    3.0505   -2.8108    0.0000 C   0  0  0  0  0  0  0  0  0  0  0  0
    4.1936   -1.8396    0.0000 C   0  0  0  0  0  0  0  0  0  0  0  0
    5.6063   -2.3439    0.0000 C   0  0  0  0  0  0  0  0  0  0  0  0
    6.7494   -1.3726    0.0000 O   0  0  0  0  0  0  0  0  0  0  0  0
    5.8759   -3.8195    0.0000 O   0  0  0  0  0  0  0  0  0  0  0  0
    3.9240   -0.3640    0.0000 C   0  0  0  0  0  0  0  0  0  0  0  0
    2.5114    0.1404    0.0000 C   0  0  0  0  0  0  0  0  0  0  0  0
   -1.2828   -1.1730    0.0000 N   0  0  0  0  0  0  0  0  0  0  0  0
  1  2  2  0
  2  3  1  0
  3  4  2  0
  4  5  1  0
  5  6  2  0
  6  7  1  0
  7  8  2  3
  8  9  1  0
  9 10  1  0
 10 11  2  3
 11 12  1  0
 12 13  2  0
 13 14  1  0
 14 15  2  0
 15 16  1  0
 16 17  2  0
 10 18  1  0
 18 19  1  0
 19 20  2  0
 20 21  1  0
 21 22  2  0
 22 23  1  0
 23 24  2  0
 23 25  1  0
 22 26  1  0
 26 27  2  0
 18 28  1  0
  7  2  1  0
 28  8  1  0
 16 11  1  0
 27 19  1  0
M  END
> <Identifier>
5493381.0

> <DILI>
1

$$$$

     RDKit          2D

 39 39  0  0  0  0  0  0  0  0999 V2000
    9.4487   -6.8540    0.0000 C   0  0  0  0  0  0  0  0  0  0  0  0
    9.6893   -5.3734    0.0000 O   0  0  0  0  0  0  0  0  0  0  0  0
    8.5273   -4.4248    0.0000 C   0  0  0  0  0  0  0  0  0  0  0  0
    8.7679   -2.9442    0.0000 C   0  0  0  0  0  0  0  0  0  0  0  0
    7.6059   -1.9956    0.0000 C   0  0  0  0  0  0  0  0  0  0  0  0
    7.8465   -0.5150    0.0000 O   0  0  0  0  0  0  0  0  0  0  0  0
    6.6846    0.4336    0.0000 C   0  0  0  0  0  0  0  0  0  0  0  0
    5.2821   -0.0984    0.0000 C   0  0  0  0  0  0  0  0  0  0  0  0
    4.1201    0.8503    0.0000 C   0  0  0  0  0  0  0  0  0  0  0  0
    2.7176    0.3183    0.0000 C   0  0  0  0  0  0  0  0  0  0  0  0
    1.5557    1.2669    0.0000 C   0  0  0  0  0  0  0  0  0  0  0  0
    0.1532    0.7350    0.0000 C   0  0  0  0  0  0  0  0  0  0  0  0
   -1.0088    1.6836    0.0000 C   0  0  0  0  0  0  0  0  0  0  0  0
   -0.7682    3.1642    0.0000 N   0  0  0  0  0  0  0  0  0  0  0  0
   -2.4113    1.1516    0.0000 C   0  0  0  0  0  0  0  0  0  0  0  0
   -2.6518   -0.3290    0.0000 O   0  0  0  0  0  0  0  0  0  0  0  0
   -3.5732    2.1002    0.0000 C   0  0  0  0  0  0  0  0  0  0  0  0
   -4.9757    1.5683    0.0000 C   0  0  0  0  0  0  0  0  0  0  0  0
   -5.2163    0.0877    0.0000 C   0  0  0  0  0  0  0  0  0  0  0  0
   -4.0544   -0.8609    0.0000 O   0  0  0  0  0  0  0  0  0  0  0  0
   -6.6188   -0.4443    0.0000 N   0  0  0  0  0  0  0  0  0  0  0  0
   -6.8594   -1.9249    0.0000 C   0  0  0  0  0  0  0  0  0  0  0  0
   -8.2619   -2.4568    0.0000 C   0  0  0  0  0  0  0  0  0  0  0  0
   -8.7938   -1.0543    0.0000 C   0  0  0  0  0  0  0  0  0  0  0  0
   -7.7299   -3.8593    0.0000 C   0  0  0  0  0  0  0  0  0  0  0  0
   -9.6644   -2.9888    0.0000 C   0  0  0  0  0  0  0  0  0  0  0  0
  -10.8263   -2.0402    0.0000 N   0  0  0  0  0  0  0  0  0  0  0  0
   -9.9049   -4.4694    0.0000 O   0  0  0  0  0  0  0  0  0  0  0  0
   -6.1377    2.5169    0.0000 C   0  0  0  0  0  0  0  0  0  0  0  0
   -7.5402    1.9849    0.0000 C   0  0  0  0  0  0  0  0  0  0  0  0
   -5.8971    3.9975    0.0000 C   0  0  0  0  0  0  0  0  0  0  0  0
    1.7962    2.7475    0.0000 C   0  0  0  0  0  0  0  0  0  0  0  0
    0.6343    3.6961    0.0000 C   0  0  0  0  0  0  0  0  0  0  0  0
    3.1987    3.2795    0.0000 C   0  0  0  0  0  0  0  0  0  0  0  0
    4.3607    2.3308    0.0000 C   0  0  0  0  0  0  0  0  0  0  0  0
    5.7632    2.8628    0.0000 C   0  0  0  0  0  0  0  0  0  0  0  0
    6.9251    1.9142    0.0000 C   0  0  0  0  0  0  0  0  0  0  0  0
    8.3276    2.4462    0.0000 O   0  0  0  0  0  0  0  0  0  0  0  0
    9.4896    1.4975    0.0000 C   0  0  0  0  0  0  0  0  0  0  0  0
  1  2  1  0
  2  3  1  0
  3  4  1  0
  4  5  1  0
  5  6  1  0
  6  7  1  0
  7  8  2  0
  8  9  1  0
  9 10  1  0
 10 11  1  0
 11 12  1  0
 12 13  1  0
 13 14  1  0
 13 15  1  0
 15 16  1  0
 15 17  1  0
 17 18  1  0
 18 19  1  0
 19 20  2  0
 19 21  1  0
 21 22  1  0
 22 23  1  0
 23 24  1  0
 23 25  1  0
 23 26  1  0
 26 27  1  0
 26 28  2  0
 18 29  1  0
 29 30  1  0
 29 31  1  0
 11 32  1  0
 32 33  1  0
 32 34  1  0
  9 35  2  0
 35 36  1  0
 36 37  2  0
 37 38  1  0
 38 39  1  0
 37  7  1  0
M  END
> <Identifier>
5493444.0

> <DILI>
0

$$$$

     RDKit          2D

 61 66  0  0  0  0  0  0  0  0999 V2000
   -4.8473    7.0065    0.0000 C   0  0  0  0  0  0  0  0  0  0  0  0
   -5.4640    5.6391    0.0000 O   0  0  0  0  0  0  0  0  0  0  0  0
   -4.5881    4.4214    0.0000 C   0  0  0  0  0  0  0  0  0  0  0  0
   -3.2665    5.1307    0.0000 C   0  0  0  0  0  0  0  0  0  0  0  0
   -1.8062    5.4739    0.0000 C   0  0  0  0  0  0  0  0  0  0  0  0
   -0.3070    5.4274    0.0000 O   0  0  0  0  0  0  0  0  0  0  0  0
    1.5657    3.8408    0.0000 C   0  0  0  0  0  0  0  0  0  0  0  0
    1.6985    5.3349    0.0000 C   0  0  0  0  0  0  0  0  0  0  0  0
    0.2789    3.0700    0.0000 O   0  0  0  0  0  0  0  0  0  0  0  0
    0.6144    1.6080    0.0000 C   0  0  0  0  0  0  0  0  0  0  0  0
   -0.2476    0.3804    0.0000 C   0  0  0  0  0  0  0  0  0  0  0  0
   -1.7417    0.5131    0.0000 C   0  0  0  0  0  0  0  0  0  0  0  0
    0.3845   -0.9799    0.0000 C   0  0  0  0  0  0  0  0  0  0  0  0
   -0.4775   -2.2075    0.0000 O   0  0  0  0  0  0  0  0  0  0  0  0
    1.8786   -1.1127    0.0000 C   0  0  0  0  0  0  0  0  0  0  0  0
    2.7406    0.1149    0.0000 C   0  0  0  0  0  0  0  0  0  0  0  0
    2.1085    1.4752    0.0000 C   0  0  0  0  0  0  0  0  0  0  0  0
    2.6965    2.8552    0.0000 C   0  0  0  0  0  0  0  0  0  0  0  0
    4.1585    3.1907    0.0000 O   0  0  0  0  0  0  0  0  0  0  0  0
    4.2347   -0.0178    0.0000 C   0  0  0  0  0  0  0  0  0  0  0  0
    5.3331    1.0037    0.0000 N   0  0  0  0  0  0  0  0  0  0  0  0
    6.6441    0.2747    0.0000 C   0  0  0  0  0  0  0  0  0  0  0  0
    7.8717   -0.5873    0.0000 C   0  0  0  0  0  0  0  0  0  0  0  0
    9.2320    0.0448    0.0000 C   0  0  0  0  0  0  0  0  0  0  0  0
    9.3647    1.5390    0.0000 N   0  0  0  0  0  0  0  0  0  0  0  0
   10.7250    2.1711    0.0000 C   0  0  0  0  0  0  0  0  0  0  0  0
   11.9526    1.3090    0.0000 C   0  0  0  0  0  0  0  0  0  0  0  0
   13.3129    1.9412    0.0000 C   0  0  0  0  0  0  0  0  0  0  0  0
   11.8199   -0.1851    0.0000 C   0  0  0  0  0  0  0  0  0  0  0  0
    8.1371    2.4010    0.0000 C   0  0  0  0  0  0  0  0  0  0  0  0
    6.7768    1.7689    0.0000 C   0  0  0  0  0  0  0  0  0  0  0  0
    6.3559   -1.1973    0.0000 N   0  0  0  0  0  0  0  0  0  0  0  0
    4.8668   -1.3781    0.0000 C   0  0  0  0  0  0  0  0  0  0  0  0
    4.0048   -2.6057    0.0000 C   0  0  0  0  0  0  0  0  0  0  0  0
    3.2150   -3.8809    0.0000 N   0  0  0  0  0  0  0  0  0  0  0  0
    2.1219   -4.9082    0.0000 C   0  0  0  0  0  0  0  0  0  0  0  0
    2.9978   -6.1259    0.0000 O   0  0  0  0  0  0  0  0  0  0  0  0
    0.8003   -5.6176    0.0000 C   0  0  0  0  0  0  0  0  0  0  0  0
    1.3311   -7.0205    0.0000 C   0  0  0  0  0  0  0  0  0  0  0  0
   -0.6599   -5.9607    0.0000 C   0  0  0  0  0  0  0  0  0  0  0  0
   -2.1592   -5.9143    0.0000 C   0  0  0  0  0  0  0  0  0  0  0  0
   -3.5954   -5.4813    0.0000 C   0  0  0  0  0  0  0  0  0  0  0  0
   -4.8706   -4.6914    0.0000 C   0  0  0  0  0  0  0  0  0  0  0  0
   -5.8201   -5.8526    0.0000 C   0  0  0  0  0  0  0  0  0  0  0  0
   -5.8978   -3.5984    0.0000 C   0  0  0  0  0  0  0  0  0  0  0  0
   -7.1156   -4.4743    0.0000 O   0  0  0  0  0  0  0  0  0  0  0  0
   -6.6072   -2.2768    0.0000 C   0  0  0  0  0  0  0  0  0  0  0  0
   -8.0102   -2.8076    0.0000 C   0  0  0  0  0  0  0  0  0  0  0  0
   -6.9504   -0.8166    0.0000 C   0  0  0  0  0  0  0  0  0  0  0  0
   -8.4429   -0.9662    0.0000 O   0  0  0  0  0  0  0  0  0  0  0  0
   -6.9039    0.6827    0.0000 C   0  0  0  0  0  0  0  0  0  0  0  0
   -8.3843    0.9245    0.0000 C   0  0  0  0  0  0  0  0  0  0  0  0
   -6.4710    2.1189    0.0000 C   0  0  0  0  0  0  0  0  0  0  0  0
   -7.8384    2.7356    0.0000 O   0  0  0  0  0  0  0  0  0  0  0  0
   -9.0561    1.8597    0.0000 C   0  0  0  0  0  0  0  0  0  0  0  0
   -8.9065    0.3672    0.0000 C   0  0  0  0  0  0  0  0  0  0  0  0
  -10.4235    2.4764    0.0000 O   0  0  0  0  0  0  0  0  0  0  0  0
   -5.6811    3.3941    0.0000 C   0  0  0  0  0  0  0  0  0  0  0  0
   -6.8423    4.3436    0.0000 C   0  0  0  0  0  0  0  0  0  0  0  0
    2.5107   -2.4730    0.0000 C   0  0  0  0  0  0  0  0  0  0  0  0
    1.6487   -3.7005    0.0000 O   0  0  0  0  0  0  0  0  0  0  0  0
  1  2  1  0
  2  3  1  0
  3  4  1  0
  4  5  2  3
  5  6  1  0
  6  7  1  0
  7  8  1  0
  7  9  1  0
  9 10  1  0
 10 11  2  0
 11 12  1  0
 11 13  1  0
 13 14  1  0
 13 15  2  0
 15 16  1  0
 16 17  2  0
 17 18  1  0
 18 19  2  0
 16 20  1  0
 20 21  2  0
 21 22  1  0
 22 23  1  0
 23 24  1  0
 24 25  1  0
 25 26  1  0
 26 27  1  0
 27 28  1  0
 27 29  1  0
 25 30  1  0
 30 31  1  0
 22 32  1  0
 32 33  1  0
 33 34  2  0
 34 35  1  0
 35 36  1  0
 36 37  2  0
 36 38  1  0
 38 39  1  0
 38 40  2  3
 40 41  1  0
 41 42  2  3
 42 43  1  0
 43 44  1  0
 43 45  1  0
 45 46  1  0
 45 47  1  0
 47 48  1  0
 47 49  1  0
 49 50  1  0
 49 51  1  0
 51 52  1  0
 51 53  1  0
 53 54  1  0
 54 55  1  0
 55 56  1  0
 55 57  2  0
 53 58  1  0
 58 59  1  0
 34 60  1  0
 60 61  2  0
 58  3  1  0
 18  7  1  0
 33 20  1  0
 17 10  1  0
 31 22  1  0
 60 15  1  0
M  END
> <Identifier>
6323490.0

> <DILI>
1

$$$$

     RDKit          2D

 24 22  0  0  0  0  0  0  0  0999 V2000
  -12.2170   -0.2342    0.0000 C   0  0  0  0  0  0  0  0  0  0  0  0
  -10.9049    0.4927    0.0000 C   0  0  0  0  0  0  0  0  0  0  0  0
   -9.6193   -0.2801    0.0000 C   0  0  0  0  0  0  0  0  0  0  0  0
   -8.3072    0.4468    0.0000 C   0  0  0  0  0  0  0  0  0  0  0  0
   -7.0217   -0.3260    0.0000 C   0  0  0  0  0  0  0  0  0  0  0  0
   -5.7096    0.4009    0.0000 C   0  0  0  0  0  0  0  0  0  0  0  0
   -4.4240   -0.3719    0.0000 C   0  0  0  0  0  0  0  0  0  0  0  0
   -3.1119    0.3550    0.0000 C   0  0  0  0  0  0  0  0  0  0  0  0
   -1.8263   -0.4178    0.0000 C   0  0  0  0  0  0  0  0  0  0  0  0
   -0.5142    0.3091    0.0000 C   0  0  0  0  0  0  0  0  0  0  0  0
    0.7714   -0.4637    0.0000 C   0  0  0  0  0  0  0  0  0  0  0  0
    2.0834    0.2632    0.0000 C   0  0  0  0  0  0  0  0  0  0  0  0
    3.3690   -0.5096    0.0000 C   0  0  0  0  0  0  0  0  0  0  0  0
    4.6811    0.2173    0.0000 C   0  0  0  0  0  0  0  0  0  0  0  0
    5.9667   -0.5555    0.0000 C   0  0  0  0  0  0  0  0  0  0  0  0
    7.2788    0.1714    0.0000 C   0  0  0  0  0  0  0  0  0  0  0  0
    8.5644   -0.6014    0.0000 C   0  0  0  0  0  0  0  0  0  0  0  0
    9.8764    0.1255    0.0000 C   0  0  0  0  0  0  0  0  0  0  0  0
    9.9029    1.6253    0.0000 O   0  0  0  0  0  0  0  0  0  0  0  0
   11.1620   -0.6473    0.0000 O   0  0  0  0  0  0  0  0  0  0  0  0
    1.9796    2.9396    0.0000 N   0  0  0  0  0  0  0  0  0  0  0  0
    0.5994    3.5270    0.0000 C   0  0  0  0  0  0  0  0  0  0  0  0
   -0.5994    2.6253    0.0000 C   0  0  0  0  0  0  0  0  0  0  0  0
   -1.9796    3.2126    0.0000 O   0  0  0  0  0  0  0  0  0  0  0  0
  1  2  1  0
  2  3  1  0
  3  4  1  0
  4  5  1  0
  5  6  1  0
  6  7  1  0
  7  8  1  0
  8  9  1  0
  9 10  2  3
 10 11  1  0
 11 12  1  0
 12 13  1  0
 13 14  1  0
 14 15  1  0
 15 16  1  0
 16 17  1  0
 17 18  1  0
 18 19  2  0
 18 20  1  0
 21 22  1  0
 22 23  1  0
 23 24  1  0
M  END
> <Identifier>
6433328.0

> <DILI>
0

$$$$

     RDKit          2D

 13 11  0  0  0  0  0  0  0  0999 V2000
    2.7364    1.3350    0.0000 C   0  0  0  0  0  0  0  0  0  0  0  0
    2.3781   -0.1215    0.0000 O   0  0  0  0  0  0  0  0  0  0  0  0
    0.9375   -0.5395    0.0000 Si  0  0  0  0  0  4  0  0  0  0  0  0
    0.5195    0.9010    0.0000 C   0  0  0  0  0  0  0  0  0  0  0  0
    1.3555   -1.9801    0.0000 C   0  0  0  0  0  0  0  0  0  0  0  0
   -0.5031   -0.9575    0.0000 O   0  0  0  0  0  0  0  0  0  0  0  0
   -1.5854    0.0810    0.0000 Si  0  0  0  0  0  4  0  0  0  0  0  0
   -2.6240   -1.0013    0.0000 C   0  0  0  0  0  0  0  0  0  0  0  0
   -0.5468    1.1633    0.0000 C   0  0  0  0  0  0  0  0  0  0  0  0
   -2.6677    1.1196    0.0000 C   0  0  0  0  0  0  0  0  0  0  0  0
   -1.5000    2.3350    0.0000 O   0  0  0  0  0  0  0  0  0  0  0  0
    0.0000    2.3350    0.0000 Si  0  0  0  0  0  4  0  0  0  0  0  0
    1.5000    2.3350    0.0000 O   0  0  0  0  0  0  0  0  0  0  0  0
  1  2  1  0
  2  3  1  0
  3  4  1  0
  3  5  1  0
  3  6  1  0
  6  7  1  0
  7  8  1  0
  7  9  1  0
  7 10  1  0
 11 12  2  0
 12 13  2  0
M  END
> <Identifier>
6433516.0

> <DILI>
0

$$$$

     RDKit          2D

 26 29  0  0  0  0  0  0  0  0999 V2000
   -8.1561    0.8535    0.0000 C   0  0  0  0  0  0  0  0  0  0  0  0
   -6.6588    0.7625    0.0000 C   0  0  0  0  0  0  0  0  0  0  0  0
   -5.8314    2.0136    0.0000 O   0  0  0  0  0  0  0  0  0  0  0  0
   -5.9891   -0.5797    0.0000 O   0  0  0  0  0  0  0  0  0  0  0  0
   -4.4918   -0.6707    0.0000 C   0  0  0  0  0  0  0  0  0  0  0  0
   -3.5381    0.4871    0.0000 C   0  0  0  0  0  0  0  0  0  0  0  0
   -2.1423   -0.0622    0.0000 C   0  0  0  0  0  0  0  0  0  0  0  0
   -2.2333   -1.5594    0.0000 C   0  0  0  0  0  0  0  0  0  0  0  0
   -3.6854   -1.9355    0.0000 S   0  0  0  0  0  0  0  0  0  0  0  0
   -0.9822   -2.3869    0.0000 C   0  0  0  0  0  0  0  0  0  0  0  0
    0.3599   -1.7171    0.0000 C   0  0  0  0  0  0  0  0  0  0  0  0
    0.4510   -0.2199    0.0000 N   0  0  0  0  0  0  0  0  0  0  0  0
    1.7932    0.4499    0.0000 C   0  0  0  0  0  0  0  0  0  0  0  0
    1.8842    1.9471    0.0000 C   0  0  0  0  0  0  0  0  0  0  0  0
    0.6331    2.7746    0.0000 O   0  0  0  0  0  0  0  0  0  0  0  0
    3.2264    2.6169    0.0000 C   0  0  0  0  0  0  0  0  0  0  0  0
    4.0538    3.8680    0.0000 C   0  0  0  0  0  0  0  0  0  0  0  0
    4.7236    2.5258    0.0000 C   0  0  0  0  0  0  0  0  0  0  0  0
    3.0443   -0.3776    0.0000 C   0  0  0  0  0  0  0  0  0  0  0  0
    4.3864    0.2922    0.0000 C   0  0  0  0  0  0  0  0  0  0  0  0
    5.6376   -0.5353    0.0000 C   0  0  0  0  0  0  0  0  0  0  0  0
    5.5465   -2.0325    0.0000 C   0  0  0  0  0  0  0  0  0  0  0  0
    4.2044   -2.7023    0.0000 C   0  0  0  0  0  0  0  0  0  0  0  0
    2.9532   -1.8748    0.0000 C   0  0  0  0  0  0  0  0  0  0  0  0
    1.6111   -2.5446    0.0000 F   0  0  0  0  0  0  0  0  0  0  0  0
   -0.8001    0.6076    0.0000 C   0  0  0  0  0  0  0  0  0  0  0  0
  1  2  1  0
  2  3  2  0
  2  4  1  0
  4  5  1  0
  5  6  2  0
  6  7  1  0
  7  8  2  0
  8  9  1  0
  8 10  1  0
 10 11  1  0
 11 12  1  0
 12 13  1  0
 13 14  1  0
 14 15  2  0
 14 16  1  0
 16 17  1  0
 17 18  1  0
 13 19  1  0
 19 20  2  0
 20 21  1  0
 21 22  2  0
 22 23  1  0
 23 24  2  0
 24 25  1  0
 12 26  1  0
  9  5  1  0
 18 16  1  0
 24 19  1  0
 26  7  1  0
M  END
> <Identifier>
6918456.0

> <DILI>
0

$$$$

     RDKit          2D

 27 30  0  0  0  0  0  0  0  0999 V2000
   -3.0786    5.2544    0.0000 C   0  0  0  0  0  0  0  0  0  0  0  0
   -3.3703    3.7830    0.0000 N   0  0  0  0  0  0  0  0  0  0  0  0
   -2.2418    2.7947    0.0000 C   0  0  0  0  0  0  0  0  0  0  0  0
   -2.5335    1.3234    0.0000 C   0  0  0  0  0  0  0  0  0  0  0  0
   -3.9535    0.8402    0.0000 C   0  0  0  0  0  0  0  0  0  0  0  0
   -4.2452   -0.6311    0.0000 N   0  0  0  0  0  0  0  0  0  0  0  0
   -3.1167   -1.6194    0.0000 C   0  0  0  0  0  0  0  0  0  0  0  0
   -3.4084   -3.0908    0.0000 N   0  0  0  0  0  0  0  0  0  0  0  0
   -2.2799   -4.0790    0.0000 C   0  0  0  0  0  0  0  0  0  0  0  0
   -0.8599   -3.5959    0.0000 C   0  0  0  0  0  0  0  0  0  0  0  0
    0.2686   -4.5841    0.0000 N   0  0  0  0  0  0  0  0  0  0  0  0
    1.6886   -4.1010    0.0000 C   0  0  0  0  0  0  0  0  0  0  0  0
    1.9803   -2.6296    0.0000 N   0  0  0  0  0  0  0  0  0  0  0  0
    0.8518   -1.6414    0.0000 C   0  0  0  0  0  0  0  0  0  0  0  0
    1.1435   -0.1700    0.0000 N   0  0  0  0  0  0  0  0  0  0  0  0
    2.5635    0.3131    0.0000 C   0  0  0  0  0  0  0  0  0  0  0  0
    3.6920   -0.6751    0.0000 C   0  0  0  0  0  0  0  0  0  0  0  0
    5.1120   -0.1920    0.0000 C   0  0  0  0  0  0  0  0  0  0  0  0
    5.4037    1.2794    0.0000 C   0  0  0  0  0  0  0  0  0  0  0  0
    6.8237    1.7625    0.0000 F   0  0  0  0  0  0  0  0  0  0  0  0
    4.2752    2.2676    0.0000 C   0  0  0  0  0  0  0  0  0  0  0  0
    4.5669    3.7390    0.0000 Cl  0  0  0  0  0  0  0  0  0  0  0  0
    2.8552    1.7845    0.0000 C   0  0  0  0  0  0  0  0  0  0  0  0
   -0.5682   -2.1245    0.0000 C   0  0  0  0  0  0  0  0  0  0  0  0
   -1.6967   -1.1363    0.0000 N   0  0  0  0  0  0  0  0  0  0  0  0
   -5.0820    1.8285    0.0000 C   0  0  0  0  0  0  0  0  0  0  0  0
   -4.7903    3.2999    0.0000 C   0  0  0  0  0  0  0  0  0  0  0  0
  1  2  1  0
  2  3  1  0
  3  4  1  0
  4  5  1  0
  5  6  1  0
  6  7  1  0
  7  8  2  0
  8  9  1  0
  9 10  2  0
 10 11  1  0
 11 12  2  0
 12 13  1  0
 13 14  2  0
 14 15  1  0
 15 16  1  0
 16 17  2  0
 17 18  1  0
 18 19  2  0
 19 20  1  0
 19 21  1  0
 21 22  1  0
 21 23  2  0
 14 24  1  0
 24 25  2  0
  5 26  1  0
 26 27  1  0
 27  2  1  0
 25  7  1  0
 24 10  1  0
 23 16  1  0
M  END
> <Identifier>
6918508.0

> <DILI>
1

$$$$

     RDKit          2D

 15 13  0  0  0  0  0  0  0  0999 V2000
    1.9486   -1.5000    0.0000 N   0  0  0  0  0  0  0  0  0  0  0  0
    0.6495   -0.7500    0.0000 C   0  0  0  0  0  0  0  0  0  0  0  0
   -0.6495   -1.5000    0.0000 C   0  0  0  0  0  0  0  0  0  0  0  0
   -1.9486   -0.7500    0.0000 C   0  0  0  0  0  0  0  0  0  0  0  0
   -1.9486    0.7500    0.0000 C   0  0  0  0  0  0  0  0  0  0  0  0
   -0.6495    1.5000    0.0000 C   0  0  0  0  0  0  0  0  0  0  0  0
    0.6495    0.7500    0.0000 C   0  0  0  0  0  0  0  0  0  0  0  0
    1.9486    1.5000    0.0000 N   0  0  0  0  0  0  0  0  0  0  0  0
   -1.5000    2.5000    0.0000 O   0  0  0  0  0  0  0  0  0  0  0  0
   -0.7500    3.7990    0.0000 C   0  0  0  0  0  0  0  0  0  0  0  0
   -1.5000    5.0981    0.0000 O   0  0  0  0  0  1  0  0  0  0  0  0
    0.7500    3.7990    0.0000 C   0  0  0  0  0  0  0  0  0  0  0  0
    1.5000    5.0981    0.0000 O   0  0  0  0  0  0  0  0  0  0  0  0
    1.5000    2.5000    0.0000 O   0  0  0  0  0  1  0  0  0  0  0  0
    2.9486    0.0000    0.0000 Pt  0  0  0  0  0 15  0  0  0  0  0  0
  1  2  1  0
  2  3  1  0
  3  4  1  0
  4  5  1  0
  5  6  1  0
  6  7  1  0
  7  8  1  0
  9 10  2  0
 10 11  1  0
 10 12  1  0
 12 13  2  0
 12 14  1  0
  7  2  1  0
M  CHG  3  11  -1  14  -1  15   2
M  END
> <Identifier>
9887054.0

> <DILI>
1

$$$$

     RDKit          2D

 41 42  0  0  0  0  0  0  0  0999 V2000
   -9.7811   -0.1164    0.0000 C   0  0  0  0  0  0  0  0  0  0  0  0
   -8.3076    0.1644    0.0000 C   0  0  0  0  0  0  0  0  0  0  0  0
   -7.8141    1.5809    0.0000 C   0  0  0  0  0  0  0  0  0  0  0  0
   -6.3406    1.8617    0.0000 C   0  0  0  0  0  0  0  0  0  0  0  0
   -5.3607    0.7260    0.0000 C   0  0  0  0  0  0  0  0  0  0  0  0
   -3.8872    1.0068    0.0000 N   0  0  0  0  0  0  0  0  0  0  0  0
   -3.2483    2.3639    0.0000 N   0  0  0  0  0  0  0  0  0  0  0  0
   -1.7601    2.1757    0.0000 C   0  0  0  0  0  0  0  0  0  0  0  0
   -0.7331    3.2689    0.0000 C   0  0  0  0  0  0  0  0  0  0  0  0
   -1.4793    0.7022    0.0000 C   0  0  0  0  0  0  0  0  0  0  0  0
   -0.1222    0.0633    0.0000 N   0  0  0  0  0  0  0  0  0  0  0  0
    0.0031   -1.4315    0.0000 N   0  0  0  0  0  0  0  0  0  0  0  0
    1.3602   -2.0704    0.0000 C   0  0  0  0  0  0  0  0  0  0  0  0
    1.4854   -3.5651    0.0000 C   0  0  0  0  0  0  0  0  0  0  0  0
    2.8426   -4.2041    0.0000 C   0  0  0  0  0  0  0  0  0  0  0  0
    4.0744   -3.3482    0.0000 C   0  0  0  0  0  0  0  0  0  0  0  0
    3.9492   -1.8534    0.0000 C   0  0  0  0  0  0  0  0  0  0  0  0
    5.1811   -0.9976    0.0000 C   0  0  0  0  0  0  0  0  0  0  0  0
    6.5382   -1.6365    0.0000 C   0  0  0  0  0  0  0  0  0  0  0  0
    7.7701   -0.7806    0.0000 C   0  0  0  0  0  0  0  0  0  0  0  0
    7.6448    0.7141    0.0000 C   0  0  0  0  0  0  0  0  0  0  0  0
    6.2877    1.3530    0.0000 C   0  0  0  0  0  0  0  0  0  0  0  0
    6.1624    2.8478    0.0000 C   0  0  0  0  0  0  0  0  0  0  0  0
    4.8053    3.4867    0.0000 O   0  0  0  0  0  0  0  0  0  0  0  0
    7.3943    3.7036    0.0000 O   0  0  0  0  0  0  0  0  0  0  0  0
    5.0558    0.4972    0.0000 C   0  0  0  0  0  0  0  0  0  0  0  0
    2.5921   -1.2145    0.0000 C   0  0  0  0  0  0  0  0  0  0  0  0
    2.4668    0.2802    0.0000 O   0  0  0  0  0  0  0  0  0  0  0  0
   -2.7939   -0.0202    0.0000 C   0  0  0  0  0  0  0  0  0  0  0  0
   -2.9822   -1.5083    0.0000 O   0  0  0  0  0  0  0  0  0  0  0  0
   -5.8542   -0.6905    0.0000 C   0  0  0  0  0  0  0  0  0  0  0  0
   -7.3277   -0.9713    0.0000 C   0  0  0  0  0  0  0  0  0  0  0  0
   -7.8212   -2.3878    0.0000 C   0  0  0  0  0  0  0  0  0  0  0  0
    1.9796    5.0180    0.0000 N   0  0  0  0  0  0  0  0  0  0  0  0
    0.5994    5.6053    0.0000 C   0  0  0  0  0  0  0  0  0  0  0  0
   -0.5994    4.7036    0.0000 C   0  0  0  0  0  0  0  0  0  0  0  0
   -1.9796    5.2910    0.0000 O   0  0  0  0  0  0  0  0  0  0  0  0
    1.9796    6.9196    0.0000 N   0  0  0  0  0  0  0  0  0  0  0  0
    0.5994    7.5070    0.0000 C   0  0  0  0  0  0  0  0  0  0  0  0
   -0.5994    6.6053    0.0000 C   0  0  0  0  0  0  0  0  0  0  0  0
   -1.9796    7.1926    0.0000 O   0  0  0  0  0  0  0  0  0  0  0  0
  1  2  1  0
  2  3  2  0
  3  4  1  0
  4  5  2  0
  5  6  1  0
  6  7  1  0
  7  8  1  0
  8  9  1  0
  8 10  2  0
 10 11  1  0
 11 12  1  0
 12 13  2  3
 13 14  1  0
 14 15  2  0
 15 16  1  0
 16 17  2  0
 17 18  1  0
 18 19  2  0
 19 20  1  0
 20 21  2  0
 21 22  1  0
 22 23  1  0
 23 24  2  0
 23 25  1  0
 22 26  2  0
 17 27  1  0
 27 28  2  0
 10 29  1  0
 29 30  2  0
  5 31  1  0
 31 32  2  0
 32 33  1  0
 34 35  1  0
 35 36  1  0
 36 37  1  0
 38 39  1  0
 39 40  1  0
 40 41  1  0
 32  2  1  0
 29  6  1  0
 27 13  1  0
 26 18  1  0
M  END
> <Identifier>
9915926.0

> <DILI>
1

$$$$

     RDKit          2D

 31 34  0  0  0  0  0  0  0  0999 V2000
   -5.8587    3.1697    0.0000 C   0  0  0  0  0  0  0  0  0  0  0  0
   -5.1790    1.8325    0.0000 C   0  0  0  0  0  0  0  0  0  0  0  0
   -3.6812    1.7526    0.0000 C   0  0  0  0  0  0  0  0  0  0  0  0
   -3.0015    0.4154    0.0000 C   0  0  0  0  0  0  0  0  0  0  0  0
   -3.8197   -0.8418    0.0000 C   0  0  0  0  0  0  0  0  0  0  0  0
   -3.1400   -2.1790    0.0000 N   0  0  0  0  0  0  0  0  0  0  0  0
   -1.6421   -2.2590    0.0000 C   0  0  0  0  0  0  0  0  0  0  0  0
   -0.9624   -3.5961    0.0000 N   0  0  0  0  0  0  0  0  0  0  0  0
    0.5354   -3.6761    0.0000 C   0  0  0  0  0  0  0  0  0  0  0  0
    1.3536   -2.4189    0.0000 C   0  0  0  0  0  0  0  0  0  0  0  0
    0.6739   -1.0817    0.0000 C   0  0  0  0  0  0  0  0  0  0  0  0
    1.4921    0.1755    0.0000 N   0  0  0  0  0  0  0  0  0  0  0  0
    0.8124    1.5127    0.0000 C   0  0  0  0  0  0  0  0  0  0  0  0
    2.9900    0.0955    0.0000 C   0  0  0  0  0  0  0  0  0  0  0  0
    3.6697   -1.2417    0.0000 C   0  0  0  0  0  0  0  0  0  0  0  0
    5.1675   -1.3216    0.0000 C   0  0  0  0  0  0  0  0  0  0  0  0
    5.9857   -0.0644    0.0000 C   0  0  0  0  0  0  0  0  0  0  0  0
    7.4675    0.1688    0.0000 C   0  0  0  0  0  0  0  0  0  0  0  0
    8.5271   -0.8929    0.0000 C   0  0  0  0  0  0  0  0  0  0  0  0
    7.7036    1.6501    0.0000 N   0  0  0  0  0  0  0  0  0  0  0  0
    9.0408    2.3298    0.0000 C   0  0  0  0  0  0  0  0  0  0  0  0
    6.3677    2.3324    0.0000 N   0  0  0  0  0  0  0  0  0  0  0  0
    5.3060    1.2728    0.0000 C   0  0  0  0  0  0  0  0  0  0  0  0
    3.8082    1.3527    0.0000 C   0  0  0  0  0  0  0  0  0  0  0  0
   -0.8239   -1.0018    0.0000 N   0  0  0  0  0  0  0  0  0  0  0  0
   -5.3175   -0.7619    0.0000 C   0  0  0  0  0  0  0  0  0  0  0  0
   -5.9972    0.5753    0.0000 C   0  0  0  0  0  0  0  0  0  0  0  0
   -7.4951    0.6553    0.0000 S   0  0  0  0  0  0  0  0  0  0  0  0
   -8.9929    0.7352    0.0000 N   0  0  0  0  0  0  0  0  0  0  0  0
   -7.5750   -0.8426    0.0000 O   0  0  0  0  0  0  0  0  0  0  0  0
   -7.4151    2.1531    0.0000 O   0  0  0  0  0  0  0  0  0  0  0  0
  1  2  1  0
  2  3  2  0
  3  4  1  0
  4  5  2  0
  5  6  1  0
  6  7  1  0
  7  8  2  0
  8  9  1  0
  9 10  2  0
 10 11  1  0
 11 12  1  0
 12 13  1  0
 12 14  1  0
 14 15  1  0
 15 16  2  0
 16 17  1  0
 17 18  2  0
 18 19  1  0
 18 20  1  0
 20 21  1  0
 20 22  1  0
 22 23  2  0
 23 24  1  0
 11 25  2  0
  5 26  1  0
 26 27  2  0
 27 28  1  0
 28 29  1  0
 28 30  2  0
 28 31  2  0
 27  2  1  0
 25  7  1  0
 24 14  2  0
 23 17  1  0
M  END
> <Identifier>
10113978.0

> <DILI>
1

$$$$

     RDKit          2D

 22 23  0  0  0  0  0  0  0  0999 V2000
    2.2604   -1.1981    0.0000 C   0  0  0  0  0  0  0  0  0  0  0  0
    3.1102    0.0380    0.0000 N   0  0  0  0  0  4  0  0  0  0  0  0
    2.3131    0.0449    0.0000 C   0  0  0  0  0  0  0  0  0  0  0  0
    4.4525   -0.6315    0.0000 C   0  0  0  0  0  0  0  0  0  0  0  0
    5.5040    0.4383    0.0000 C   0  0  0  0  0  0  0  0  0  0  0  0
    4.8115    1.7689    0.0000 C   0  0  0  0  0  0  0  0  0  0  0  0
    3.3320    1.5215    0.0000 C   0  0  0  0  0  0  0  0  0  0  0  0
    1.9225    0.9807    0.0000 C   0  0  0  0  0  0  0  0  0  0  0  0
    1.8569   -0.5179    0.0000 C   0  0  0  0  0  0  0  0  0  0  0  0
    0.5263   -1.2104    0.0000 O   0  0  0  0  0  0  0  0  0  0  0  0
   -0.7387   -0.4043    0.0000 C   0  0  0  0  0  0  0  0  0  0  0  0
   -0.6731    1.0942    0.0000 O   0  0  0  0  0  0  0  0  0  0  0  0
   -2.0692   -1.0968    0.0000 C   0  0  0  0  0  0  0  0  0  0  0  0
   -2.1348   -2.5954    0.0000 O   0  0  0  0  0  0  0  0  0  0  0  0
   -3.3343   -0.2907    0.0000 C   0  0  0  0  0  0  0  0  0  0  0  0
   -3.2687    1.2078    0.0000 C   0  0  0  0  0  0  0  0  0  0  0  0
   -4.5337    2.0139    0.0000 C   0  0  0  0  0  0  0  0  0  0  0  0
   -5.8643    1.3214    0.0000 C   0  0  0  0  0  0  0  0  0  0  0  0
   -5.9298   -0.1772    0.0000 C   0  0  0  0  0  0  0  0  0  0  0  0
   -4.6648   -0.9832    0.0000 C   0  0  0  0  0  0  0  0  0  0  0  0
    3.1219   -1.3240    0.0000 C   0  0  0  0  0  0  0  0  0  0  0  0
    0.0000    3.0139    0.0000 Br  0  0  0  0  0 15  0  0  0  0  0  0
  1  2  1  0
  2  3  1  0
  2  4  1  0
  4  5  1  0
  5  6  1  0
  6  7  1  0
  7  8  1  0
  8  9  1  0
  9 10  1  0
 10 11  1  0
 11 12  2  0
 11 13  1  0
 13 14  1  0
 13 15  1  0
 15 16  2  0
 16 17  1  0
 17 18  2  0
 18 19  1  0
 19 20  2  0
  9 21  1  0
  7  2  1  0
 20 15  1  0
 21  4  1  0
M  CHG  2   2   1  22  -1
M  END
> <Identifier>
10429215.0

> <DILI>
0

$$$$

     RDKit          2D

 65 66  0  0  0  0  0  0  0  0999 V2000
    9.8561   -7.5722    0.0000 C   0  0  0  0  0  0  0  0  0  0  0  0
    8.7239   -6.5883    0.0000 C   0  0  0  0  0  0  0  0  0  0  0  0
    7.6498   -7.6354    0.0000 C   0  0  0  0  0  0  0  0  0  0  0  0
    6.4181   -8.4914    0.0000 C   0  0  0  0  0  0  0  0  0  0  0  0
    5.0622   -9.1330    0.0000 C   0  0  0  0  0  0  0  0  0  0  0  0
    3.6192   -9.5427    0.0000 C   0  0  0  0  0  0  0  0  0  0  0  0
    2.1285   -9.7093    0.0000 C   0  0  0  0  0  0  0  0  0  0  0  0
    0.6307   -9.6283    0.0000 C   0  0  0  0  0  0  0  0  0  0  0  0
   -0.8333   -9.3018    0.0000 C   0  0  0  0  0  0  0  0  0  0  0  0
   -2.2237   -8.7388    0.0000 C   0  0  0  0  0  0  0  0  0  0  0  0
   -3.5024   -7.9547    0.0000 C   0  0  0  0  0  0  0  0  0  0  0  0
   -4.6346   -6.9708    0.0000 C   0  0  0  0  0  0  0  0  0  0  0  0
   -5.5894   -5.8139    0.0000 C   0  0  0  0  0  0  0  0  0  0  0  0
   -6.3408   -4.5157    0.0000 C   0  0  0  0  0  0  0  0  0  0  0  0
   -6.8683   -3.1115    0.0000 C   0  0  0  0  0  0  0  0  0  0  0  0
   -7.1574   -1.6396    0.0000 C   0  0  0  0  0  0  0  0  0  0  0  0
   -7.2003   -0.1402    0.0000 C   0  0  0  0  0  0  0  0  0  0  0  0
   -8.6981   -0.0592    0.0000 O   0  0  0  0  0  0  0  0  0  0  0  0
   -9.5172   -1.3158    0.0000 C   0  0  0  0  0  0  0  0  0  0  0  0
   -8.8385   -2.6535    0.0000 O   0  0  0  0  0  0  0  0  0  0  0  0
   -9.6576   -3.9101    0.0000 C   0  0  0  0  0  0  0  0  0  0  0  0
   -8.9788   -5.2477    0.0000 C   0  0  0  0  0  0  0  0  0  0  0  0
  -11.1554   -3.8291    0.0000 C   0  0  0  0  0  0  0  0  0  0  0  0
  -11.9745   -5.0857    0.0000 O   0  0  0  0  0  0  0  0  0  0  0  0
  -11.8341   -2.4914    0.0000 C   0  0  0  0  0  0  0  0  0  0  0  0
  -13.3319   -2.4104    0.0000 N   0  0  0  0  0  0  0  0  0  0  0  0
  -11.0150   -1.2348    0.0000 C   0  0  0  0  0  0  0  0  0  0  0  0
  -11.6938    0.1029    0.0000 O   0  0  0  0  0  0  0  0  0  0  0  0
   -6.9959    1.3458    0.0000 C   0  0  0  0  0  0  0  0  0  0  0  0
   -6.5496    2.7779    0.0000 C   0  0  0  0  0  0  0  0  0  0  0  0
   -7.9400    3.3408    0.0000 O   0  0  0  0  0  0  0  0  0  0  0  0
   -5.8738    4.1170    0.0000 C   0  0  0  0  0  0  0  0  0  0  0  0
   -7.1525    4.9011    0.0000 C   0  0  0  0  0  0  0  0  0  0  0  0
   -8.4709    4.1858    0.0000 O   0  0  0  0  0  0  0  0  0  0  0  0
   -7.1128    6.4006    0.0000 O   0  0  0  0  0  0  0  0  0  0  0  0
   -4.9867    5.3266    0.0000 C   0  0  0  0  0  0  0  0  0  0  0  0
   -6.1189    6.3105    0.0000 O   0  0  0  0  0  0  0  0  0  0  0  0
   -3.9126    6.3737    0.0000 C   0  0  0  0  0  0  0  0  0  0  0  0
   -2.6809    7.2297    0.0000 C   0  0  0  0  0  0  0  0  0  0  0  0
   -3.4323    8.5279    0.0000 O   0  0  0  0  0  0  0  0  0  0  0  0
   -1.3250    7.8713    0.0000 C   0  0  0  0  0  0  0  0  0  0  0  0
    0.1179    8.2810    0.0000 C   0  0  0  0  0  0  0  0  0  0  0  0
   -0.1712    9.7529    0.0000 O   0  0  0  0  0  0  0  0  0  0  0  0
    1.6086    8.4476    0.0000 C   0  0  0  0  0  0  0  0  0  0  0  0
    1.5657    9.9470    0.0000 O   0  0  0  0  0  0  0  0  0  0  0  0
    3.1065    8.3666    0.0000 C   0  0  0  0  0  0  0  0  0  0  0  0
    4.5705    8.0401    0.0000 C   0  0  0  0  0  0  0  0  0  0  0  0
    5.9608    7.4771    0.0000 C   0  0  0  0  0  0  0  0  0  0  0  0
    6.6367    8.8162    0.0000 O   0  0  0  0  0  0  0  0  0  0  0  0
    7.2396    6.6930    0.0000 C   0  0  0  0  0  0  0  0  0  0  0  0
    8.3718    5.7091    0.0000 C   0  0  0  0  0  0  0  0  0  0  0  0
    9.4458    6.7561    0.0000 O   0  0  0  0  0  0  0  0  0  0  0  0
    9.3266    4.5522    0.0000 C   0  0  0  0  0  0  0  0  0  0  0  0
   10.0780    3.2540    0.0000 C   0  0  0  0  0  0  0  0  0  0  0  0
   11.4338    3.8956    0.0000 O   0  0  0  0  0  0  0  0  0  0  0  0
   10.6054    1.8498    0.0000 C   0  0  0  0  0  0  0  0  0  0  0  0
   10.8946    0.3779    0.0000 C   0  0  0  0  0  0  0  0  0  0  0  0
   12.3853    0.5445    0.0000 O   0  0  0  0  0  0  0  0  0  0  0  0
   10.9375   -1.1215    0.0000 O   0  0  0  0  0  0  0  0  0  0  0  0
   10.7330   -2.6075    0.0000 C   0  0  0  0  0  0  0  0  0  0  0  0
   12.1971   -2.9340    0.0000 C   0  0  0  0  0  0  0  0  0  0  0  0
   10.2868   -4.0396    0.0000 C   0  0  0  0  0  0  0  0  0  0  0  0
   11.6771   -4.6026    0.0000 C   0  0  0  0  0  0  0  0  0  0  0  0
    9.6109   -5.3787    0.0000 C   0  0  0  0  0  0  0  0  0  0  0  0
   10.8896   -6.1628    0.0000 O   0  0  0  0  0  0  0  0  0  0  0  0
  1  2  1  0
  2  3  1  0
  3  4  2  3
  4  5  1  0
  5  6  2  3
  6  7  1  0
  7  8  1  0
  8  9  1  0
  9 10  2  3
 10 11  1  0
 11 12  2  3
 12 13  1  0
 13 14  2  3
 14 15  1  0
 15 16  2  3
 16 17  1  0
 17 18  1  0
 18 19  1  0
 19 20  1  0
 20 21  1  0
 21 22  1  0
 21 23  1  0
 23 24  1  0
 23 25  1  0
 25 26  1  0
 25 27  1  0
 27 28  1  0
 17 29  1  0
 29 30  1  0
 30 31  1  0
 30 32  1  0
 32 33  1  0
 33 34  2  0
 33 35  1  0
 32 36  1  0
 36 37  1  0
 36 38  1  0
 38 39  1  0
 39 40  2  0
 39 41  1  0
 41 42  1  0
 42 43  1  0
 42 44  1  0
 44 45  1  0
 44 46  1  0
 46 47  1  0
 47 48  1  0
 48 49  1  0
 48 50  1  0
 50 51  1  0
 51 52  1  0
 51 53  1  0
 53 54  1  0
 54 55  1  0
 54 56  1  0
 56 57  1  0
 57 58  2  0
 57 59  1  0
 59 60  1  0
 60 61  1  0
 60 62  1  0
 62 63  1  0
 62 64  1  0
 64 65  1  0
 64  2  1  0
 27 19  1  0
M  END
> <Identifier>
11953884.0

> <DILI>
0

$$$$

     RDKit          2D

 13  6  0  0  0  0  0  0  0  0999 V2000
    0.7500    0.0000    0.0000 C   0  0  0  0  0  3  0  0  0  0  0  0
   -0.7500    0.0000    0.0000 N   0  0  0  0  0  0  0  0  0  0  0  0
    0.7500    1.0000    0.0000 C   0  0  0  0  0  3  0  0  0  0  0  0
   -0.7500    1.0000    0.0000 N   0  0  0  0  0  0  0  0  0  0  0  0
    0.7500    2.0000    0.0000 C   0  0  0  0  0  3  0  0  0  0  0  0
   -0.7500    2.0000    0.0000 N   0  0  0  0  0  0  0  0  0  0  0  0
    3.2500    0.0000    0.0000 C   0  0  0  0  0  3  0  0  0  0  0  0
    1.7500    0.0000    0.0000 N   0  0  0  0  0  0  0  0  0  0  0  0
    0.7500    3.0000    0.0000 C   0  0  0  0  0  3  0  0  0  0  0  0
   -0.7500    3.0000    0.0000 N   0  0  0  0  0  0  0  0  0  0  0  0
    4.2500    0.0000    0.0000 Fe  0  0  0  0  0 15  0  0  0  0  0  0
   -0.7500    4.0000    0.0000 N   0  0  0  0  0  2  0  0  0  0  0  0
    0.7500    4.0000    0.0000 O   0  0  0  0  0  0  0  0  0  0  0  0
  1  2  3  0
  3  4  3  0
  5  6  3  0
  7  8  3  0
  9 10  3  0
 12 13  2  0
M  CHG  7   1  -1   3  -1   5  -1   7  -1   9  -1  11   4  12  -1
M  END
> <Identifier>
11963622.0

> <DILI>
0

$$$$

     RDKit          2D

 21 18  0  0  0  0  0  0  0  0999 V2000
   -3.8971   -1.0500    0.0000 C   0  0  0  0  0  0  0  0  0  0  0  0
   -2.5981   -0.3000    0.0000 C   0  0  0  0  0  0  0  0  0  0  0  0
   -1.2990   -1.0500    0.0000 C   0  0  0  0  0  0  0  0  0  0  0  0
    0.0000   -0.3000    0.0000 C   0  0  0  0  0  0  0  0  0  0  0  0
    1.2990   -1.0500    0.0000 C   0  0  0  0  0  0  0  0  0  0  0  0
    2.5981   -0.3000    0.0000 C   0  0  0  0  0  0  0  0  0  0  0  0
    3.8971   -1.0500    0.0000 C   0  0  0  0  0  0  0  0  0  0  0  0
   -0.0000    1.2000    0.0000 C   0  0  0  0  0  0  0  0  0  0  0  0
   -1.2990    1.9500    0.0000 O   0  0  0  0  0  0  0  0  0  0  0  0
    1.2990    1.9500    0.0000 O   0  0  0  0  0  0  0  0  0  0  0  0
   -3.8971    2.9500    0.0000 C   0  0  0  0  0  0  0  0  0  0  0  0
   -2.5981    3.7000    0.0000 C   0  0  0  0  0  0  0  0  0  0  0  0
   -1.2990    2.9500    0.0000 C   0  0  0  0  0  0  0  0  0  0  0  0
    0.0000    3.7000    0.0000 C   0  0  0  0  0  0  0  0  0  0  0  0
    1.2990    2.9500    0.0000 C   0  0  0  0  0  0  0  0  0  0  0  0
    2.5981    3.7000    0.0000 C   0  0  0  0  0  0  0  0  0  0  0  0
    3.8971    2.9500    0.0000 C   0  0  0  0  0  0  0  0  0  0  0  0
   -0.0000    5.2000    0.0000 C   0  0  0  0  0  0  0  0  0  0  0  0
   -1.2990    5.9500    0.0000 O   0  0  0  0  0  0  0  0  0  0  0  0
    1.2990    5.9500    0.0000 O   0  0  0  0  0  1  0  0  0  0  0  0
    0.0000    6.9500    0.0000 Na  0  0  0  0  0 15  0  0  0  0  0  0
  1  2  1  0
  2  3  1  0
  3  4  1  0
  4  5  1  0
  5  6  1  0
  6  7  1  0
  4  8  1  0
  8  9  2  0
  8 10  1  0
 11 12  1  0
 12 13  1  0
 13 14  1  0
 14 15  1  0
 15 16  1  0
 16 17  1  0
 14 18  1  0
 18 19  2  0
 18 20  1  0
M  CHG  2  20  -1  21   1
M  END
> <Identifier>
23663956.0

> <DILI>
1

$$$$

     RDKit          2D

 29 27  0  0  0  0  0  0  0  0999 V2000
    8.3969    3.7346    0.0000 C   0  0  0  0  0  0  0  0  0  0  0  0
    8.4979    2.2380    0.0000 C   0  0  0  0  0  0  0  0  0  0  0  0
    7.2523    1.4023    0.0000 C   0  0  0  0  0  0  0  0  0  0  0  0
    7.3533   -0.0943    0.0000 C   0  0  0  0  0  0  0  0  0  0  0  0
    6.1077   -0.9301    0.0000 C   0  0  0  0  0  0  0  0  0  0  0  0
    6.2088   -2.4267    0.0000 C   0  0  0  0  0  0  0  0  0  0  0  0
    4.9632   -3.2625    0.0000 C   0  0  0  0  0  0  0  0  0  0  0  0
    4.7612   -0.2693    0.0000 C   0  0  0  0  0  0  0  0  0  0  0  0
    3.5156   -1.1051    0.0000 O   0  0  0  0  0  0  0  0  0  0  0  0
    2.1690   -0.4442    0.0000 C   0  0  0  0  0  0  0  0  0  0  0  0
    2.0680    1.0524    0.0000 O   0  0  0  0  0  0  0  0  0  0  0  0
    0.9234   -1.2800    0.0000 C   0  0  0  0  0  0  0  0  0  0  0  0
   -0.4232   -0.6192    0.0000 C   0  0  0  0  0  0  0  0  0  0  0  0
   -1.6688   -1.4550    0.0000 C   0  0  0  0  0  0  0  0  0  0  0  0
   -1.5678   -2.9516    0.0000 O   0  0  0  0  0  0  0  0  0  0  0  0
   -3.0154   -0.7941    0.0000 O   0  0  0  0  0  0  0  0  0  0  0  0
   -4.2610   -1.6299    0.0000 C   0  0  0  0  0  0  0  0  0  0  0  0
   -5.6076   -0.9691    0.0000 C   0  0  0  0  0  0  0  0  0  0  0  0
   -6.8532   -1.8049    0.0000 C   0  0  0  0  0  0  0  0  0  0  0  0
   -8.1997   -1.1440    0.0000 C   0  0  0  0  0  0  0  0  0  0  0  0
   -5.7086    0.5275    0.0000 C   0  0  0  0  0  0  0  0  0  0  0  0
   -7.0552    1.1883    0.0000 C   0  0  0  0  0  0  0  0  0  0  0  0
   -7.1562    2.6849    0.0000 C   0  0  0  0  0  0  0  0  0  0  0  0
   -8.5028    3.3457    0.0000 C   0  0  0  0  0  0  0  0  0  0  0  0
   -0.5242    0.8774    0.0000 S   0  0  0  0  0  0  0  0  0  0  0  0
   -2.0208    0.7764    0.0000 O   0  0  0  0  0  0  0  0  0  0  0  0
    0.9724    0.9784    0.0000 O   0  0  0  0  0  0  0  0  0  0  0  0
   -0.6252    2.3740    0.0000 O   0  0  0  0  0  1  0  0  0  0  0  0
    0.0000    4.7346    0.0000 Na  0  0  0  0  0 15  0  0  0  0  0  0
  1  2  1  0
  2  3  1  0
  3  4  1  0
  4  5  1  0
  5  6  1  0
  6  7  1  0
  5  8  1  0
  8  9  1  0
  9 10  1  0
 10 11  2  0
 10 12  1  0
 12 13  1  0
 13 14  1  0
 14 15  2  0
 14 16  1  0
 16 17  1  0
 17 18  1  0
 18 19  1  0
 19 20  1  0
 18 21  1  0
 21 22  1  0
 22 23  1  0
 23 24  1  0
 13 25  1  0
 25 26  2  0
 25 27  2  0
 25 28  1  0
M  CHG  2  28  -1  29   1
M  END
> <Identifier>
23673837.0

> <DILI>
0

$$$$

     RDKit          2D

 32 35  0  0  0  0  0  0  0  0999 V2000
    2.4755   -3.1473    0.0000 C   0  0  0  0  0  0  0  0  0  0  0  0
    2.5348   -1.6485    0.0000 C   0  0  0  0  0  0  0  0  0  0  0  0
    3.8625   -0.9504    0.0000 C   0  0  0  0  0  0  0  0  0  0  0  0
    5.1309   -1.7512    0.0000 C   0  0  0  0  0  0  0  0  0  0  0  0
    6.4586   -1.0532    0.0000 C   0  0  0  0  0  0  0  0  0  0  0  0
    6.5179    0.4456    0.0000 C   0  0  0  0  0  0  0  0  0  0  0  0
    5.2496    1.2464    0.0000 C   0  0  0  0  0  0  0  0  0  0  0  0
    5.3089    2.7452    0.0000 O   0  0  0  0  0  0  0  0  0  0  0  0
    3.9219    0.5484    0.0000 C   0  0  0  0  0  0  0  0  0  0  0  0
    2.6535    1.3492    0.0000 C   0  0  0  0  0  0  0  0  0  0  0  0
    2.7129    2.8480    0.0000 O   0  0  0  0  0  0  0  0  0  0  0  0
    1.3258    0.6512    0.0000 C   0  0  0  0  0  0  0  0  0  0  0  0
    0.0575    1.4520    0.0000 C   0  0  0  0  0  0  0  0  0  0  0  0
    0.1168    2.9508    0.0000 O   0  0  0  0  0  0  0  0  0  0  0  0
   -1.2702    0.7540    0.0000 C   0  0  0  0  0  0  0  0  0  0  0  0
   -1.2109    2.2528    0.0000 O   0  0  0  0  0  0  0  0  0  0  0  0
   -2.5386    1.5548    0.0000 C   0  0  0  0  0  0  0  0  0  0  0  0
   -2.4792    3.0536    0.0000 O   0  0  0  0  0  0  0  0  0  0  0  0
   -3.8662    0.8568    0.0000 C   0  0  0  0  0  0  0  0  0  0  0  0
   -5.1346    1.6576    0.0000 C   0  0  0  0  0  0  0  0  0  0  0  0
   -5.0753    3.1564    0.0000 N   0  0  0  0  0  0  0  0  0  0  0  0
   -6.4623    0.9595    0.0000 O   0  0  0  0  0  0  0  0  0  0  0  0
   -3.9256   -0.6421    0.0000 C   0  0  0  0  0  0  0  0  0  0  0  0
   -5.2533   -1.3401    0.0000 O   0  0  0  0  0  0  0  0  0  0  0  0
   -2.6572   -1.4429    0.0000 C   0  0  0  0  0  0  0  0  0  0  0  0
   -2.7166   -2.9417    0.0000 N   0  0  0  0  0  0  0  0  0  0  0  0
   -4.0443   -3.6397    0.0000 C   0  0  0  0  0  0  0  0  0  0  0  0
   -1.4482   -3.7425    0.0000 C   0  0  0  0  0  0  0  0  0  0  0  0
   -1.3295   -0.7449    0.0000 C   0  0  0  0  0  0  0  0  0  0  0  0
   -0.0612   -1.5457    0.0000 C   0  0  0  0  0  0  0  0  0  0  0  0
   -0.1205   -3.0445    0.0000 O   0  0  0  0  0  0  0  0  0  0  0  0
    1.2665   -0.8476    0.0000 C   0  0  0  0  0  0  0  0  0  0  0  0
  1  2  2  0
  2  3  1  0
  3  4  2  0
  4  5  1  0
  5  6  2  0
  6  7  1  0
  7  8  1  0
  7  9  2  0
  9 10  1  0
 10 11  1  0
 10 12  2  0
 12 13  1  0
 13 14  2  0
 13 15  1  0
 15 16  1  0
 15 17  1  0
 17 18  1  0
 17 19  2  0
 19 20  1  0
 20 21  1  0
 20 22  2  0
 19 23  1  0
 23 24  2  0
 23 25  1  0
 25 26  1  0
 26 27  1  0
 26 28  1  0
 25 29  1  0
 29 30  1  0
 30 31  1  0
 30 32  1  0
 32  2  1  0
  9  3  1  0
 32 12  1  0
 29 15  1  0
M  END
> <Identifier>
54675785.0

> <DILI>
1

$$$$

     RDKit          2D

 12 12  0  0  0  0  0  0  0  0999 V2000
   -2.9245   -2.1458    0.0000 O   0  0  0  0  0  0  0  0  0  0  0  0
   -1.8372   -1.1125    0.0000 C   0  0  0  0  0  0  0  0  0  0  0  0
   -0.3621   -1.3848    0.0000 O   0  0  0  0  0  0  0  0  0  0  0  0
    0.3527   -0.0660    0.0000 C   0  0  0  0  0  0  0  0  0  0  0  0
    1.8397    0.1308    0.0000 C   0  0  0  0  0  0  0  0  0  0  0  0
    2.4128    1.5170    0.0000 O   0  0  0  0  0  0  0  0  0  0  0  0
    2.7537   -1.0586    0.0000 C   0  0  0  0  0  0  0  0  0  0  0  0
    4.2407   -0.8618    0.0000 O   0  0  0  0  0  0  0  0  0  0  0  0
   -0.6806    1.0213    0.0000 C   0  0  0  0  0  0  0  0  0  0  0  0
   -0.4083    2.4964    0.0000 O   0  0  0  0  0  0  0  0  0  0  0  0
   -2.0340    0.3746    0.0000 C   0  0  0  0  0  0  0  0  0  0  0  0
   -3.3528    1.0894    0.0000 O   0  0  0  0  0  0  0  0  0  0  0  0
  1  2  2  0
  2  3  1  0
  3  4  1  0
  4  5  1  0
  5  6  1  0
  5  7  1  0
  7  8  1  0
  4  9  1  0
  9 10  1  0
  9 11  2  0
 11 12  1  0
 11  2  1  0
M  END
> <Identifier>
54678501.0

> <DILI>
0

$$$$

     RDKit          2D

 32 35  0  0  0  0  0  0  0  0999 V2000
   -4.0102    3.8489    0.0000 C   0  0  0  0  0  0  0  0  0  0  0  0
   -2.7209    3.0822    0.0000 N   0  0  0  0  0  0  0  0  0  0  0  0
   -1.4123    3.8154    0.0000 C   0  0  0  0  0  0  0  0  0  0  0  0
   -2.7403    1.5823    0.0000 C   0  0  0  0  0  0  0  0  0  0  0  0
   -4.0489    0.8492    0.0000 C   0  0  0  0  0  0  0  0  0  0  0  0
   -5.3381    1.6159    0.0000 O   0  0  0  0  0  0  0  0  0  0  0  0
   -4.0682   -0.6507    0.0000 C   0  0  0  0  0  0  0  0  0  0  0  0
   -5.3768   -1.3839    0.0000 C   0  0  0  0  0  0  0  0  0  0  0  0
   -6.6661   -0.6172    0.0000 N   0  0  0  0  0  0  0  0  0  0  0  0
   -5.3962   -2.8838    0.0000 O   0  0  0  0  0  0  0  0  0  0  0  0
   -2.7790   -1.4174    0.0000 C   0  0  0  0  0  0  0  0  0  0  0  0
   -2.7983   -2.9173    0.0000 O   0  0  0  0  0  0  0  0  0  0  0  0
   -1.4704   -0.6842    0.0000 C   0  0  0  0  0  0  0  0  0  0  0  0
   -1.4897   -2.1841    0.0000 O   0  0  0  0  0  0  0  0  0  0  0  0
   -0.1811   -1.4509    0.0000 C   0  0  0  0  0  0  0  0  0  0  0  0
   -0.2005   -2.9508    0.0000 O   0  0  0  0  0  0  0  0  0  0  0  0
    1.1275   -0.7177    0.0000 C   0  0  0  0  0  0  0  0  0  0  0  0
    2.4168   -1.4844    0.0000 C   0  0  0  0  0  0  0  0  0  0  0  0
    2.3974   -2.9843    0.0000 O   0  0  0  0  0  0  0  0  0  0  0  0
    3.7254   -0.7512    0.0000 C   0  0  0  0  0  0  0  0  0  0  0  0
    5.0146   -1.5179    0.0000 C   0  0  0  0  0  0  0  0  0  0  0  0
    4.9953   -3.0178    0.0000 O   0  0  0  0  0  0  0  0  0  0  0  0
    6.3232   -0.7847    0.0000 C   0  0  0  0  0  0  0  0  0  0  0  0
    6.3426    0.7151    0.0000 C   0  0  0  0  0  0  0  0  0  0  0  0
    5.0533    1.4818    0.0000 C   0  0  0  0  0  0  0  0  0  0  0  0
    5.0726    2.9817    0.0000 Cl  0  0  0  0  0  0  0  0  0  0  0  0
    3.7447    0.7486    0.0000 C   0  0  0  0  0  0  0  0  0  0  0  0
    2.4554    1.5153    0.0000 C   0  0  0  0  0  0  0  0  0  0  0  0
    2.4748    3.0152    0.0000 O   0  0  0  0  0  0  0  0  0  0  0  0
    1.1468    0.7821    0.0000 C   0  0  0  0  0  0  0  0  0  0  0  0
   -0.1424    1.5488    0.0000 C   0  0  0  0  0  0  0  0  0  0  0  0
   -1.4510    0.8157    0.0000 C   0  0  0  0  0  0  0  0  0  0  0  0
  1  2  1  0
  2  3  1  0
  2  4  1  0
  4  5  1  0
  5  6  2  0
  5  7  1  0
  7  8  1  0
  8  9  1  0
  8 10  2  0
  7 11  2  0
 11 12  1  0
 11 13  1  0
 13 14  1  0
 13 15  1  0
 15 16  2  0
 15 17  1  0
 17 18  2  0
 18 19  1  0
 18 20  1  0
 20 21  2  0
 21 22  1  0
 21 23  1  0
 23 24  2  0
 24 25  1  0
 25 26  1  0
 25 27  2  0
 27 28  1  0
 28 29  1  0
 28 30  1  0
 30 31  1  0
 31 32  1  0
 32  4  1  0
 32 13  1  0
 30 17  1  0
 27 20  1  0
M  END
> <Identifier>
54680690.0

> <DILI>
1

$$$$
