
     RDKit          2D

 33 37  0  0  0  0  0  0  0  0999 V2000
   -9.6966    1.2145    0.0000 O   0  0  0  0  0  0  0  0  0  0  0  0
   -8.2503    0.8170    0.0000 C   0  0  0  0  0  0  0  0  0  0  0  0
   -7.1828    1.8708    0.0000 C   0  0  0  0  0  0  0  0  0  0  0  0
   -5.7365    1.4732    0.0000 C   0  0  0  0  0  0  0  0  0  0  0  0
   -5.3576    0.0219    0.0000 C   0  0  0  0  0  0  0  0  0  0  0  0
   -3.9112   -0.3757    0.0000 C   0  0  0  0  0  0  0  0  0  0  0  0
   -3.5323   -1.8270    0.0000 C   0  0  0  0  0  0  0  0  0  0  0  0
   -2.0860   -2.2246    0.0000 N   0  0  0  0  0  0  0  0  0  0  0  0
   -1.7071   -3.6759    0.0000 C   0  0  0  0  0  0  0  0  0  0  0  0
   -0.2607   -4.0735    0.0000 C   0  0  0  0  0  0  0  0  0  0  0  0
    0.8068   -3.0197    0.0000 C   0  0  0  0  0  0  0  0  0  0  0  0
    2.2531   -3.4172    0.0000 N   0  0  0  0  0  0  0  0  0  0  0  0
    3.3206   -2.3634    0.0000 C   0  0  0  0  0  0  0  0  0  0  0  0
    4.8006   -2.6076    0.0000 N   0  0  0  0  0  0  0  0  0  0  0  0
    5.4902   -1.2755    0.0000 C   0  0  0  0  0  0  0  0  0  0  0  0
    6.9415   -0.8966    0.0000 C   0  0  0  0  0  0  0  0  0  0  0  0
    7.3391    0.5498    0.0000 C   0  0  0  0  0  0  0  0  0  0  0  0
    6.2853    1.6172    0.0000 C   0  0  0  0  0  0  0  0  0  0  0  0
    4.8339    1.2383    0.0000 C   0  0  0  0  0  0  0  0  0  0  0  0
    4.4363   -0.2080    0.0000 C   0  0  0  0  0  0  0  0  0  0  0  0
    3.0955   -0.8804    0.0000 N   0  0  0  0  0  0  0  0  0  0  0  0
    1.7634   -0.1908    0.0000 C   0  0  0  0  0  0  0  0  0  0  0  0
    1.6945    1.3076    0.0000 C   0  0  0  0  0  0  0  0  0  0  0  0
    2.9578    2.1164    0.0000 C   0  0  0  0  0  0  0  0  0  0  0  0
    2.8889    3.6149    0.0000 C   0  0  0  0  0  0  0  0  0  0  0  0
    1.5568    4.3044    0.0000 C   0  0  0  0  0  0  0  0  0  0  0  0
    1.4879    5.8028    0.0000 F   0  0  0  0  0  0  0  0  0  0  0  0
    0.2936    3.4956    0.0000 C   0  0  0  0  0  0  0  0  0  0  0  0
    0.3624    1.9972    0.0000 C   0  0  0  0  0  0  0  0  0  0  0  0
    0.4279   -1.5683    0.0000 C   0  0  0  0  0  0  0  0  0  0  0  0
   -1.0185   -1.1708    0.0000 C   0  0  0  0  0  0  0  0  0  0  0  0
   -6.4250   -1.0319    0.0000 C   0  0  0  0  0  0  0  0  0  0  0  0
   -7.8714   -0.6344    0.0000 C   0  0  0  0  0  0  0  0  0  0  0  0
  1  2  1  0
  2  3  2  0
  3  4  1  0
  4  5  2  0
  5  6  1  0
  6  7  1  0
  7  8  1  0
  8  9  1  0
  9 10  1  0
 10 11  1  0
 11 12  1  0
 12 13  1  0
 13 14  2  0
 14 15  1  0
 15 16  2  0
 16 17  1  0
 17 18  2  0
 18 19  1  0
 19 20  2  0
 20 21  1  0
 21 22  1  0
 22 23  1  0
 23 24  2  0
 24 25  1  0
 25 26  2  0
 26 27  1  0
 26 28  1  0
 28 29  2  0
 11 30  1  0
 30 31  1  0
  5 32  1  0
 32 33  2  0
 33  2  1  0
 31  8  1  0
 21 13  1  0
 29 23  1  0
 20 15  1  0
M  END
> <Identifier>
DEMETHYLASTEMIZOLE

> <hERG>
1

$$$$

     RDKit          2D

 33 36  0  0  0  0  0  0  0  0999 V2000
   10.1291   -0.3904    0.0000 F   0  0  0  0  0  0  0  0  0  0  0  0
    8.6299   -0.3443    0.0000 C   0  0  0  0  0  0  0  0  0  0  0  0
    7.8403   -1.6197    0.0000 C   0  0  0  0  0  0  0  0  0  0  0  0
    6.3410   -1.5735    0.0000 C   0  0  0  0  0  0  0  0  0  0  0  0
    5.6313   -0.2520    0.0000 C   0  0  0  0  0  0  0  0  0  0  0  0
    4.1320   -0.2059    0.0000 C   0  0  0  0  0  0  0  0  0  0  0  0
    3.3424   -1.4813    0.0000 O   0  0  0  0  0  0  0  0  0  0  0  0
    1.8431   -1.4351    0.0000 C   0  0  0  0  0  0  0  0  0  0  0  0
    1.0535   -2.7105    0.0000 C   0  0  0  0  0  0  0  0  0  0  0  0
   -0.4458   -2.6644    0.0000 N   0  0  0  0  0  4  0  0  0  0  0  0
   -1.1555   -1.3429    0.0000 C   0  0  0  0  0  0  0  0  0  0  0  0
   -2.6548   -1.2967    0.0000 C   0  0  0  0  0  0  0  0  0  0  0  0
   -3.4444   -2.5721    0.0000 N   0  0  0  0  0  4  0  0  0  0  0  0
   -4.9437   -2.5260    0.0000 C   0  0  0  0  0  0  0  0  0  0  0  0
   -5.6534   -1.2045    0.0000 C   0  0  0  0  0  0  0  0  0  0  0  0
   -7.1526   -1.1583    0.0000 C   0  0  0  0  0  0  0  0  0  0  0  0
   -7.8623    0.1632    0.0000 C   0  0  0  0  0  0  0  0  0  0  0  0
   -7.0727    1.4385    0.0000 C   0  0  0  0  0  0  0  0  0  0  0  0
   -7.7824    2.7600    0.0000 C   0  0  0  0  0  0  0  0  0  0  0  0
   -9.2817    2.8061    0.0000 C   0  0  0  0  0  0  0  0  0  0  0  0
  -10.0713    1.5308    0.0000 C   0  0  0  0  0  0  0  0  0  0  0  0
   -9.3616    0.2093    0.0000 C   0  0  0  0  0  0  0  0  0  0  0  0
   -2.7347   -3.8936    0.0000 C   0  0  0  0  0  0  0  0  0  0  0  0
   -1.2354   -3.9397    0.0000 C   0  0  0  0  0  0  0  0  0  0  0  0
    3.4223    1.1156    0.0000 C   0  0  0  0  0  0  0  0  0  0  0  0
    4.2119    2.3909    0.0000 C   0  0  0  0  0  0  0  0  0  0  0  0
    3.5022    3.7124    0.0000 C   0  0  0  0  0  0  0  0  0  0  0  0
    2.0029    3.7586    0.0000 C   0  0  0  0  0  0  0  0  0  0  0  0
    1.2932    5.0801    0.0000 F   0  0  0  0  0  0  0  0  0  0  0  0
    1.2133    2.4832    0.0000 C   0  0  0  0  0  0  0  0  0  0  0  0
    1.9230    1.1617    0.0000 C   0  0  0  0  0  0  0  0  0  0  0  0
    6.4209    1.0233    0.0000 C   0  0  0  0  0  0  0  0  0  0  0  0
    7.9202    0.9772    0.0000 C   0  0  0  0  0  0  0  0  0  0  0  0
  1  2  1  0
  2  3  2  0
  3  4  1  0
  4  5  2  0
  5  6  1  0
  6  7  1  0
  7  8  1  0
  8  9  1  0
  9 10  1  0
 10 11  1  0
 11 12  1  0
 12 13  1  0
 13 14  1  0
 14 15  1  0
 15 16  1  0
 16 17  1  0
 17 18  2  0
 18 19  1  0
 19 20  2  0
 20 21  1  0
 21 22  2  0
 13 23  1  0
 23 24  1  0
  6 25  1  0
 25 26  2  0
 26 27  1  0
 27 28  2  0
 28 29  1  0
 28 30  1  0
 30 31  2  0
  5 32  1  0
 32 33  2  0
 33  2  1  0
 24 10  1  0
 31 25  1  0
 22 17  1  0
M  CHG  2  10   1  13   1
M  END
> <Identifier>
GBR-12909

> <hERG>
1

$$$$

     RDKit          2D

 23 23  0  0  0  0  0  0  0  0999 V2000
   -9.9737   -3.1771    0.0000 C   0  0  0  0  0  0  0  0  0  0  0  0
   -9.2256   -1.8770    0.0000 C   0  0  0  0  0  0  0  0  0  0  0  0
   -7.7256   -1.8748    0.0000 C   0  0  0  0  0  0  0  0  0  0  0  0
   -6.9774   -0.5747    0.0000 C   0  0  0  0  0  0  0  0  0  0  0  0
   -5.4775   -0.5726    0.0000 C   0  0  0  0  0  0  0  0  0  0  0  0
   -4.7293    0.7275    0.0000 C   0  0  0  0  0  0  0  0  0  0  0  0
   -3.2293    0.7296    0.0000 C   0  0  0  0  0  0  0  0  0  0  0  0
   -2.4812    2.0297    0.0000 N   0  0  0  0  0  0  0  0  0  0  0  0
   -3.2330    3.3277    0.0000 C   0  0  0  0  0  0  0  0  0  0  0  0
   -4.7330    3.3256    0.0000 C   0  0  0  0  0  0  0  0  0  0  0  0
   -0.9812    2.0319    0.0000 C   0  0  0  0  0  0  0  0  0  0  0  0
   -0.2293    0.7339    0.0000 C   0  0  0  0  0  0  0  0  0  0  0  0
    1.2707    0.7360    0.0000 C   0  0  0  0  0  0  0  0  0  0  0  0
    2.0225   -0.5619    0.0000 C   0  0  0  0  0  0  0  0  0  0  0  0
    3.5225   -0.5598    0.0000 C   0  0  0  0  0  0  0  0  0  0  0  0
    4.2707    0.7403    0.0000 C   0  0  0  0  0  0  0  0  0  0  0  0
    5.7707    0.7425    0.0000 C   0  0  0  0  0  0  0  0  0  0  0  0
    6.5225   -0.5555    0.0000 C   0  0  0  0  0  0  0  0  0  0  0  0
    8.0225   -0.5534    0.0000 N   0  0  0  0  0  4  0  0  0  0  0  0
    8.7707    0.7467    0.0000 O   0  0  0  0  0  0  0  0  0  0  0  0
    8.7744   -1.8514    0.0000 O   0  0  0  0  0  1  0  0  0  0  0  0
    5.7744   -1.8556    0.0000 C   0  0  0  0  0  0  0  0  0  0  0  0
    4.2744   -1.8578    0.0000 C   0  0  0  0  0  0  0  0  0  0  0  0
  1  2  1  0
  2  3  1  0
  3  4  1  0
  4  5  1  0
  5  6  1  0
  6  7  1  0
  7  8  1  0
  8  9  1  0
  9 10  1  0
  8 11  1  0
 11 12  1  0
 12 13  1  0
 13 14  1  0
 14 15  1  0
 15 16  2  0
 16 17  1  0
 17 18  2  0
 18 19  1  0
 19 20  2  0
 19 21  1  0
 18 22  1  0
 22 23  2  0
 23 15  1  0
M  CHG  2  19   1  21  -1
M  END
> <Identifier>
LY-97241

> <hERG>
1

$$$$

     RDKit          2D

 74 73  0  0  0  0  0  0  0  0999 V2000
   -9.5730   -2.4660    0.0000 C   0  0  0  0  0  0  0  0  0  0  0  0
   -8.0736   -2.4249    0.0000 C   0  0  0  0  0  0  0  0  0  0  0  0
   -7.3595   -1.1058    0.0000 C   0  0  0  0  0  0  0  0  0  0  0  0
   -5.8601   -1.0647    0.0000 C   0  0  0  0  0  0  0  0  0  0  0  0
   -5.1459    0.2544    0.0000 C   0  0  0  0  0  0  0  0  0  0  0  0
   -3.6465    0.2955    0.0000 C   0  0  0  0  0  0  0  0  0  0  0  0
   -2.9324    1.6146    0.0000 C   0  0  0  0  0  0  0  0  0  0  0  0
   -1.4330    1.6557    0.0000 N   0  0  0  0  0  4  0  0  0  0  0  0
   -1.4741    3.1552    0.0000 C   0  0  0  0  0  0  0  0  0  0  0  0
   -2.7932    3.8693    0.0000 C   0  0  0  0  0  0  0  0  0  0  0  0
   -1.3918    0.1563    0.0000 C   0  0  0  0  0  0  0  0  0  0  0  0
   -2.6698   -0.6290    0.0000 C   0  0  0  0  0  0  0  0  0  0  0  0
    0.0665    1.6969    0.0000 C   0  0  0  0  0  0  0  0  0  0  0  0
    0.8518    0.4189    0.0000 C   0  0  0  0  0  0  0  0  0  0  0  0
    2.3512    0.4600    0.0000 C   0  0  0  0  0  0  0  0  0  0  0  0
    3.1366   -0.8180    0.0000 C   0  0  0  0  0  0  0  0  0  0  0  0
    4.6360   -0.7769    0.0000 C   0  0  0  0  0  0  0  0  0  0  0  0
    5.3501    0.5422    0.0000 C   0  0  0  0  0  0  0  0  0  0  0  0
    6.8495    0.5833    0.0000 C   0  0  0  0  0  0  0  0  0  0  0  0
    7.6349   -0.6947    0.0000 C   0  0  0  0  0  0  0  0  0  0  0  0
    9.1343   -0.6536    0.0000 Cl  0  0  0  0  0  0  0  0  0  0  0  0
    6.9208   -2.0138    0.0000 C   0  0  0  0  0  0  0  0  0  0  0  0
    5.4213   -2.0549    0.0000 C   0  0  0  0  0  0  0  0  0  0  0  0
   -9.5730    4.8693    0.0000 C   0  0  0  0  0  0  0  0  0  0  0  0
   -8.0736    4.9104    0.0000 C   0  0  0  0  0  0  0  0  0  0  0  0
   -7.3595    6.2295    0.0000 C   0  0  0  0  0  0  0  0  0  0  0  0
   -5.8601    6.2706    0.0000 C   0  0  0  0  0  0  0  0  0  0  0  0
   -5.1459    7.5897    0.0000 C   0  0  0  0  0  0  0  0  0  0  0  0
   -3.6465    7.6308    0.0000 C   0  0  0  0  0  0  0  0  0  0  0  0
   -2.9324    8.9499    0.0000 C   0  0  0  0  0  0  0  0  0  0  0  0
   -1.4330    8.9911    0.0000 N   0  0  0  0  0  4  0  0  0  0  0  0
   -1.4741   10.4905    0.0000 C   0  0  0  0  0  0  0  0  0  0  0  0
   -2.7932   11.2046    0.0000 C   0  0  0  0  0  0  0  0  0  0  0  0
   -1.3918    7.4916    0.0000 C   0  0  0  0  0  0  0  0  0  0  0  0
   -2.6698    6.7063    0.0000 C   0  0  0  0  0  0  0  0  0  0  0  0
    0.0665    9.0322    0.0000 C   0  0  0  0  0  0  0  0  0  0  0  0
    0.8518    7.7542    0.0000 C   0  0  0  0  0  0  0  0  0  0  0  0
    2.3512    7.7953    0.0000 C   0  0  0  0  0  0  0  0  0  0  0  0
    3.1366    6.5173    0.0000 C   0  0  0  0  0  0  0  0  0  0  0  0
    4.6360    6.5584    0.0000 C   0  0  0  0  0  0  0  0  0  0  0  0
    5.3501    7.8775    0.0000 C   0  0  0  0  0  0  0  0  0  0  0  0
    6.8495    7.9186    0.0000 C   0  0  0  0  0  0  0  0  0  0  0  0
    7.6349    6.6406    0.0000 C   0  0  0  0  0  0  0  0  0  0  0  0
    9.1343    6.6817    0.0000 Cl  0  0  0  0  0  0  0  0  0  0  0  0
    6.9208    5.3215    0.0000 C   0  0  0  0  0  0  0  0  0  0  0  0
    5.4213    5.2804    0.0000 C   0  0  0  0  0  0  0  0  0  0  0  0
   -9.5730   12.2046    0.0000 C   0  0  0  0  0  0  0  0  0  0  0  0
   -8.0736   12.2457    0.0000 C   0  0  0  0  0  0  0  0  0  0  0  0
   -7.3595   13.5648    0.0000 C   0  0  0  0  0  0  0  0  0  0  0  0
   -5.8601   13.6059    0.0000 C   0  0  0  0  0  0  0  0  0  0  0  0
   -5.1459   14.9250    0.0000 C   0  0  0  0  0  0  0  0  0  0  0  0
   -3.6465   14.9662    0.0000 C   0  0  0  0  0  0  0  0  0  0  0  0
   -2.9324   16.2853    0.0000 C   0  0  0  0  0  0  0  0  0  0  0  0
   -1.4330   16.3264    0.0000 N   0  0  0  0  0  4  0  0  0  0  0  0
   -1.4741   17.8258    0.0000 C   0  0  0  0  0  0  0  0  0  0  0  0
   -2.7932   18.5399    0.0000 C   0  0  0  0  0  0  0  0  0  0  0  0
   -1.3918   14.8269    0.0000 C   0  0  0  0  0  0  0  0  0  0  0  0
   -2.6698   14.0416    0.0000 C   0  0  0  0  0  0  0  0  0  0  0  0
    0.0665   16.3675    0.0000 C   0  0  0  0  0  0  0  0  0  0  0  0
    0.8518   15.0895    0.0000 C   0  0  0  0  0  0  0  0  0  0  0  0
    2.3512   15.1306    0.0000 C   0  0  0  0  0  0  0  0  0  0  0  0
    3.1366   13.8526    0.0000 C   0  0  0  0  0  0  0  0  0  0  0  0
    4.6360   13.8937    0.0000 C   0  0  0  0  0  0  0  0  0  0  0  0
    5.3501   15.2128    0.0000 C   0  0  0  0  0  0  0  0  0  0  0  0
    6.8495   15.2539    0.0000 C   0  0  0  0  0  0  0  0  0  0  0  0
    7.6349   13.9759    0.0000 C   0  0  0  0  0  0  0  0  0  0  0  0
    9.1343   14.0171    0.0000 Cl  0  0  0  0  0  0  0  0  0  0  0  0
    6.9208   12.6568    0.0000 C   0  0  0  0  0  0  0  0  0  0  0  0
    5.4213   12.6157    0.0000 C   0  0  0  0  0  0  0  0  0  0  0  0
   10.1343   -0.7500    0.0000 O   0  0  0  0  0  0  0  0  0  0  0  0
   11.4333   -0.0000    0.0000 P   0  0  0  0  0  0  0  0  0  0  0  0
   12.7324    0.7500    0.0000 O   0  0  0  0  0  1  0  0  0  0  0  0
   12.1833   -1.2990    0.0000 O   0  0  0  0  0  1  0  0  0  0  0  0
   10.6833    1.2990    0.0000 O   0  0  0  0  0  1  0  0  0  0  0  0
  1  2  1  0
  2  3  1  0
  3  4  1  0
  4  5  1  0
  5  6  1  0
  6  7  1  0
  7  8  1  0
  8  9  1  0
  9 10  1  0
  8 11  1  0
 11 12  1  0
  8 13  1  0
 13 14  1  0
 14 15  1  0
 15 16  1  0
 16 17  1  0
 17 18  2  0
 18 19  1  0
 19 20  2  0
 20 21  1  0
 20 22  1  0
 22 23  2  0
 24 25  1  0
 25 26  1  0
 26 27  1  0
 27 28  1  0
 28 29  1  0
 29 30  1  0
 30 31  1  0
 31 32  1  0
 32 33  1  0
 31 34  1  0
 34 35  1  0
 31 36  1  0
 36 37  1  0
 37 38  1  0
 38 39  1  0
 39 40  1  0
 40 41  2  0
 41 42  1  0
 42 43  2  0
 43 44  1  0
 43 45  1  0
 45 46  2  0
 47 48  1  0
 48 49  1  0
 49 50  1  0
 50 51  1  0
 51 52  1  0
 52 53  1  0
 53 54  1  0
 54 55  1  0
 55 56  1  0
 54 57  1  0
 57 58  1  0
 54 59  1  0
 59 60  1  0
 60 61  1  0
 61 62  1  0
 62 63  1  0
 63 64  2  0
 64 65  1  0
 65 66  2  0
 66 67  1  0
 66 68  1  0
 68 69  2  0
 70 71  2  0
 71 72  1  0
 71 73  1  0
 71 74  1  0
 23 17  1  0
 46 40  1  0
 69 63  1  0
M  CHG  6   8   1  31   1  54   1  72  -1  73  -1  74  -1
M  END
> <Identifier>
CLOFILIUM PHOSPHATE

> <hERG>
1

$$$$

     RDKit          2D

 35 39  0  0  0  0  0  0  0  0999 V2000
   -5.5131    3.9305    0.0000 O   0  0  0  0  0  0  0  0  0  0  0  0
   -5.6526    2.4370    0.0000 C   0  0  0  0  0  0  0  0  0  0  0  0
   -6.9429    1.6720    0.0000 N   0  0  0  0  0  0  0  0  0  0  0  0
   -6.6141    0.2085    0.0000 C   0  0  0  0  0  0  0  0  0  0  0  0
   -5.1206    0.0690    0.0000 N   0  0  0  0  0  0  0  0  0  0  0  0
   -4.3556   -1.2213    0.0000 C   0  0  0  0  0  0  0  0  0  0  0  0
   -5.0906   -2.5289    0.0000 C   0  0  0  0  0  0  0  0  0  0  0  0
   -4.3256   -3.8192    0.0000 C   0  0  0  0  0  0  0  0  0  0  0  0
   -2.8257   -3.8019    0.0000 C   0  0  0  0  0  0  0  0  0  0  0  0
   -2.0908   -2.4943    0.0000 C   0  0  0  0  0  0  0  0  0  0  0  0
   -2.8557   -1.2040    0.0000 C   0  0  0  0  0  0  0  0  0  0  0  0
   -4.5264    1.4462    0.0000 C   0  0  0  0  0  0  0  0  0  0  0  0
   -3.5099    0.3432    0.0000 C   0  0  0  0  0  0  0  0  0  0  0  0
   -2.0463    0.6720    0.0000 C   0  0  0  0  0  0  0  0  0  0  0  0
   -1.5993    2.1038    0.0000 N   0  0  0  0  0  4  0  0  0  0  0  0
   -0.1358    2.4326    0.0000 C   0  0  0  0  0  0  0  0  0  0  0  0
    0.8807    1.3296    0.0000 C   0  0  0  0  0  0  0  0  0  0  0  0
    2.3442    1.6584    0.0000 C   0  0  0  0  0  0  0  0  0  0  0  0
    3.3607    0.5554    0.0000 C   0  0  0  0  0  0  0  0  0  0  0  0
    4.8243    0.8842    0.0000 C   0  0  0  0  0  0  0  0  0  0  0  0
    5.8408   -0.2189    0.0000 C   0  0  0  0  0  0  0  0  0  0  0  0
    7.3043    0.1099    0.0000 C   0  0  0  0  0  0  0  0  0  0  0  0
    7.7513    1.5418    0.0000 C   0  0  0  0  0  0  0  0  0  0  0  0
    9.2148    1.8706    0.0000 F   0  0  0  0  0  0  0  0  0  0  0  0
    6.7348    2.6448    0.0000 C   0  0  0  0  0  0  0  0  0  0  0  0
    5.2713    2.3160    0.0000 C   0  0  0  0  0  0  0  0  0  0  0  0
    2.9137   -0.8765    0.0000 C   0  0  0  0  0  0  0  0  0  0  0  0
    1.4502   -1.2053    0.0000 C   0  0  0  0  0  0  0  0  0  0  0  0
    1.0032   -2.6371    0.0000 C   0  0  0  0  0  0  0  0  0  0  0  0
    2.0197   -3.7402    0.0000 C   0  0  0  0  0  0  0  0  0  0  0  0
    1.5727   -5.1720    0.0000 F   0  0  0  0  0  0  0  0  0  0  0  0
    3.4832   -3.4114    0.0000 C   0  0  0  0  0  0  0  0  0  0  0  0
    3.9302   -1.9795    0.0000 C   0  0  0  0  0  0  0  0  0  0  0  0
   -2.6158    3.2069    0.0000 C   0  0  0  0  0  0  0  0  0  0  0  0
   -4.0794    2.8781    0.0000 C   0  0  0  0  0  0  0  0  0  0  0  0
  1  2  2  0
  2  3  1  0
  3  4  1  0
  4  5  1  0
  5  6  1  0
  6  7  2  0
  7  8  1  0
  8  9  2  0
  9 10  1  0
 10 11  2  0
  5 12  1  0
 12 13  1  0
 13 14  1  0
 14 15  1  0
 15 16  1  0
 16 17  1  0
 17 18  1  0
 18 19  1  0
 19 20  1  0
 20 21  2  0
 21 22  1  0
 22 23  2  0
 23 24  1  0
 23 25  1  0
 25 26  2  0
 19 27  1  0
 27 28  2  0
 28 29  1  0
 29 30  2  0
 30 31  1  0
 30 32  1  0
 32 33  2  0
 15 34  1  0
 34 35  1  0
 12  2  1  0
 26 20  1  0
 33 27  1  0
 11  6  1  0
 35 12  1  0
M  CHG  1  15   1
M  END
> <Identifier>
FLUSPIRILENE

> <hERG>
1

$$$$

     RDKit          2D

 28 31  0  0  0  0  0  0  0  0999 V2000
   -4.0090    2.0908    0.0000 O   0  0  0  0  0  0  0  0  0  0  0  0
   -4.5771    0.7025    0.0000 C   0  0  0  0  0  0  0  0  0  0  0  0
   -3.6588   -0.4836    0.0000 C   0  0  0  0  0  0  0  0  0  0  0  0
   -2.1725   -0.2814    0.0000 C   0  0  0  0  0  0  0  0  0  0  0  0
   -1.2542   -1.4675    0.0000 C   0  0  0  0  0  0  0  0  0  0  0  0
    0.2321   -1.2652    0.0000 N   0  0  0  0  0  0  0  0  0  0  0  0
    1.1504   -2.4513    0.0000 C   0  0  0  0  0  0  0  0  0  0  0  0
    2.6367   -2.2491    0.0000 C   0  0  0  0  0  0  0  0  0  0  0  0
    3.2047   -0.8608    0.0000 C   0  0  0  0  0  0  0  0  0  0  0  0
    4.6910   -0.6586    0.0000 N   0  0  0  0  0  0  0  0  0  0  0  0
    5.7282   -1.7422    0.0000 C   0  0  0  0  0  0  0  0  0  0  0  0
    5.4613   -3.2183    0.0000 O   0  0  0  0  0  0  0  0  0  0  0  0
    7.0793   -1.0906    0.0000 N   0  0  0  0  0  0  0  0  0  0  0  0
    6.8771    0.3957    0.0000 C   0  0  0  0  0  0  0  0  0  0  0  0
    7.8463    1.5405    0.0000 C   0  0  0  0  0  0  0  0  0  0  0  0
    7.3395    2.9523    0.0000 C   0  0  0  0  0  0  0  0  0  0  0  0
    5.8635    3.2193    0.0000 C   0  0  0  0  0  0  0  0  0  0  0  0
    4.8942    2.0745    0.0000 C   0  0  0  0  0  0  0  0  0  0  0  0
    5.4011    0.6627    0.0000 C   0  0  0  0  0  0  0  0  0  0  0  0
    2.2864    0.3253    0.0000 C   0  0  0  0  0  0  0  0  0  0  0  0
    0.8001    0.1230    0.0000 C   0  0  0  0  0  0  0  0  0  0  0  0
   -6.0634    0.5003    0.0000 C   0  0  0  0  0  0  0  0  0  0  0  0
   -6.9816    1.6864    0.0000 C   0  0  0  0  0  0  0  0  0  0  0  0
   -8.4680    1.4841    0.0000 C   0  0  0  0  0  0  0  0  0  0  0  0
   -9.0360    0.0959    0.0000 C   0  0  0  0  0  0  0  0  0  0  0  0
  -10.5223   -0.1063    0.0000 F   0  0  0  0  0  0  0  0  0  0  0  0
   -8.1177   -1.0902    0.0000 C   0  0  0  0  0  0  0  0  0  0  0  0
   -6.6314   -0.8880    0.0000 C   0  0  0  0  0  0  0  0  0  0  0  0
  1  2  2  0
  2  3  1  0
  3  4  1  0
  4  5  1  0
  5  6  1  0
  6  7  1  0
  7  8  1  0
  8  9  1  0
  9 10  1  0
 10 11  1  0
 11 12  2  0
 11 13  1  0
 13 14  1  0
 14 15  2  0
 15 16  1  0
 16 17  2  0
 17 18  1  0
 18 19  2  0
  9 20  1  0
 20 21  1  0
  2 22  1  0
 22 23  2  0
 23 24  1  0
 24 25  2  0
 25 26  1  0
 25 27  1  0
 27 28  2  0
 21  6  1  0
 28 22  1  0
 19 10  1  0
 19 14  1  0
M  END
> <Identifier>
BENPERIDOL

> <hERG>
1

$$$$

     RDKit          2D

 30 34  0  0  0  0  0  0  0  0999 V2000
    8.3597    3.6479    0.0000 F   0  0  0  0  0  0  0  0  0  0  0  0
    7.1493    2.7620    0.0000 C   0  0  0  0  0  0  0  0  0  0  0  0
    7.3114    1.2708    0.0000 C   0  0  0  0  0  0  0  0  0  0  0  0
    6.1010    0.3848    0.0000 C   0  0  0  0  0  0  0  0  0  0  0  0
    4.7285    0.9901    0.0000 C   0  0  0  0  0  0  0  0  0  0  0  0
    3.5181    0.1041    0.0000 N   0  0  0  0  0  0  0  0  0  0  0  0
    2.0899    0.5626    0.0000 C   0  0  0  0  0  0  0  0  0  0  0  0
    1.2125   -0.6541    0.0000 C   0  0  0  0  0  0  0  0  0  0  0  0
   -0.2875   -0.6594    0.0000 C   0  0  0  0  0  0  0  0  0  0  0  0
   -1.0421    0.6370    0.0000 C   0  0  0  0  0  0  0  0  0  0  0  0
   -2.5421    0.6317    0.0000 C   0  0  0  0  0  0  0  0  0  0  0  0
   -3.2875   -0.6700    0.0000 N   0  0  0  0  0  0  0  0  0  0  0  0
   -4.7875   -0.6753    0.0000 C   0  0  0  0  0  0  0  0  0  0  0  0
   -5.5420    0.6211    0.0000 C   0  0  0  0  0  0  0  0  0  0  0  0
   -7.0420    0.6158    0.0000 N   0  0  0  0  0  0  0  0  0  0  0  0
   -7.9194   -0.6008    0.0000 C   0  0  0  0  0  0  0  0  0  0  0  0
   -9.3476   -0.1424    0.0000 C   0  0  0  0  0  0  0  0  0  0  0  0
   -9.3529    1.3576    0.0000 N   0  0  0  0  0  0  0  0  0  0  0  0
   -7.9280    1.8262    0.0000 C   0  0  0  0  0  0  0  0  0  0  0  0
   -7.4695    3.2544    0.0000 S   0  0  0  0  0  0  0  0  0  0  0  0
   -2.5329   -1.9664    0.0000 C   0  0  0  0  0  0  0  0  0  0  0  0
   -1.0329   -1.9610    0.0000 C   0  0  0  0  0  0  0  0  0  0  0  0
    2.0985   -1.8645    0.0000 C   0  0  0  0  0  0  0  0  0  0  0  0
    1.7918   -3.3328    0.0000 C   0  0  0  0  0  0  0  0  0  0  0  0
    2.9100   -4.3325    0.0000 C   0  0  0  0  0  0  0  0  0  0  0  0
    4.3350   -3.8640    0.0000 C   0  0  0  0  0  0  0  0  0  0  0  0
    4.6417   -2.3956    0.0000 C   0  0  0  0  0  0  0  0  0  0  0  0
    3.5234   -1.3959    0.0000 C   0  0  0  0  0  0  0  0  0  0  0  0
    4.5664    2.4813    0.0000 C   0  0  0  0  0  0  0  0  0  0  0  0
    5.7768    3.3672    0.0000 C   0  0  0  0  0  0  0  0  0  0  0  0
  1  2  1  0
  2  3  2  0
  3  4  1  0
  4  5  2  0
  5  6  1  0
  6  7  1  0
  7  8  2  0
  8  9  1  0
  9 10  1  0
 10 11  1  0
 11 12  1  0
 12 13  1  0
 13 14  1  0
 14 15  1  0
 15 16  1  0
 16 17  1  0
 17 18  1  0
 18 19  1  0
 19 20  2  0
 12 21  1  0
 21 22  1  0
  8 23  1  0
 23 24  2  0
 24 25  1  0
 25 26  2  0
 26 27  1  0
 27 28  2  0
  5 29  1  0
 29 30  2  0
 30  2  1  0
 28  6  1  0
 22  9  1  0
 28 23  1  0
 19 15  1  0
M  END
> <Identifier>
nan

> <hERG>
1

$$$$

     RDKit          2D

 30 34  0  0  0  0  0  0  0  0999 V2000
   -8.1299    2.0203    0.0000 O   0  0  0  0  0  0  0  0  0  0  0  0
   -8.2571    0.5257    0.0000 C   0  0  0  0  0  0  0  0  0  0  0  0
   -9.5410   -0.2499    0.0000 N   0  0  0  0  0  0  0  0  0  0  0  0
   -9.2001   -1.7106    0.0000 C   0  0  0  0  0  0  0  0  0  0  0  0
   -7.7055   -1.8378    0.0000 C   0  0  0  0  0  0  0  0  0  0  0  0
   -7.1227   -0.4556    0.0000 N   0  0  0  0  0  0  0  0  0  0  0  0
   -5.6619   -0.1147    0.0000 C   0  0  0  0  0  0  0  0  0  0  0  0
   -4.6363   -1.2093    0.0000 C   0  0  0  0  0  0  0  0  0  0  0  0
   -3.1756   -0.8684    0.0000 N   0  0  0  0  0  0  0  0  0  0  0  0
   -2.1499   -1.9629    0.0000 C   0  0  0  0  0  0  0  0  0  0  0  0
   -0.6892   -1.6220    0.0000 C   0  0  0  0  0  0  0  0  0  0  0  0
   -0.2541   -0.1865    0.0000 C   0  0  0  0  0  0  0  0  0  0  0  0
    1.2067    0.1544    0.0000 C   0  0  0  0  0  0  0  0  0  0  0  0
    2.3411   -0.8270    0.0000 C   0  0  0  0  0  0  0  0  0  0  0  0
    3.6250   -0.0513    0.0000 N   0  0  0  0  0  0  0  0  0  0  0  0
    5.0071   -0.6341    0.0000 C   0  0  0  0  0  0  0  0  0  0  0  0
    5.1935   -2.1225    0.0000 C   0  0  0  0  0  0  0  0  0  0  0  0
    6.5757   -2.7053    0.0000 C   0  0  0  0  0  0  0  0  0  0  0  0
    7.7715   -1.7997    0.0000 C   0  0  0  0  0  0  0  0  0  0  0  0
    9.1536   -2.3825    0.0000 F   0  0  0  0  0  0  0  0  0  0  0  0
    7.5851   -0.3113    0.0000 C   0  0  0  0  0  0  0  0  0  0  0  0
    6.2029    0.2715    0.0000 C   0  0  0  0  0  0  0  0  0  0  0  0
    3.2841    1.4094    0.0000 C   0  0  0  0  0  0  0  0  0  0  0  0
    4.1415    2.6402    0.0000 C   0  0  0  0  0  0  0  0  0  0  0  0
    3.5043    3.9981    0.0000 C   0  0  0  0  0  0  0  0  0  0  0  0
    2.0097    4.1253    0.0000 C   0  0  0  0  0  0  0  0  0  0  0  0
    1.1523    2.8945    0.0000 C   0  0  0  0  0  0  0  0  0  0  0  0
    1.7895    1.5366    0.0000 C   0  0  0  0  0  0  0  0  0  0  0  0
   -1.2797    0.9081    0.0000 C   0  0  0  0  0  0  0  0  0  0  0  0
   -2.7404    0.5671    0.0000 C   0  0  0  0  0  0  0  0  0  0  0  0
  1  2  2  0
  2  3  1  0
  3  4  1  0
  4  5  1  0
  5  6  1  0
  6  7  1  0
  7  8  1  0
  8  9  1  0
  9 10  1  0
 10 11  1  0
 11 12  1  0
 12 13  1  0
 13 14  2  0
 14 15  1  0
 15 16  1  0
 16 17  2  0
 17 18  1  0
 18 19  2  0
 19 20  1  0
 19 21  1  0
 21 22  2  0
 15 23  1  0
 23 24  2  0
 24 25  1  0
 25 26  2  0
 26 27  1  0
 27 28  2  0
 12 29  1  0
 29 30  1  0
  6  2  1  0
 30  9  1  0
 28 13  1  0
 22 16  1  0
 28 23  1  0
M  END
> <Identifier>
BMCL20031829_03

> <hERG>
1

$$$$

     RDKit          2D

 33 36  0  0  0  0  0  0  0  0999 V2000
   10.1291   -0.3904    0.0000 F   0  0  0  0  0  0  0  0  0  0  0  0
    8.6299   -0.3443    0.0000 C   0  0  0  0  0  0  0  0  0  0  0  0
    7.8403   -1.6197    0.0000 C   0  0  0  0  0  0  0  0  0  0  0  0
    6.3410   -1.5735    0.0000 C   0  0  0  0  0  0  0  0  0  0  0  0
    5.6313   -0.2520    0.0000 C   0  0  0  0  0  0  0  0  0  0  0  0
    4.1320   -0.2059    0.0000 C   0  0  0  0  0  0  0  0  0  0  0  0
    3.3424   -1.4813    0.0000 O   0  0  0  0  0  0  0  0  0  0  0  0
    1.8431   -1.4351    0.0000 C   0  0  0  0  0  0  0  0  0  0  0  0
    1.0535   -2.7105    0.0000 C   0  0  0  0  0  0  0  0  0  0  0  0
   -0.4458   -2.6644    0.0000 N   0  0  0  0  0  0  0  0  0  0  0  0
   -1.1555   -1.3429    0.0000 C   0  0  0  0  0  0  0  0  0  0  0  0
   -2.6548   -1.2967    0.0000 C   0  0  0  0  0  0  0  0  0  0  0  0
   -3.4444   -2.5721    0.0000 N   0  0  0  0  0  0  0  0  0  0  0  0
   -4.9437   -2.5260    0.0000 C   0  0  0  0  0  0  0  0  0  0  0  0
   -5.6534   -1.2045    0.0000 C   0  0  0  0  0  0  0  0  0  0  0  0
   -7.1526   -1.1583    0.0000 C   0  0  0  0  0  0  0  0  0  0  0  0
   -7.8623    0.1632    0.0000 C   0  0  0  0  0  0  0  0  0  0  0  0
   -7.0727    1.4385    0.0000 C   0  0  0  0  0  0  0  0  0  0  0  0
   -7.7824    2.7600    0.0000 C   0  0  0  0  0  0  0  0  0  0  0  0
   -9.2817    2.8061    0.0000 C   0  0  0  0  0  0  0  0  0  0  0  0
  -10.0713    1.5308    0.0000 C   0  0  0  0  0  0  0  0  0  0  0  0
   -9.3616    0.2093    0.0000 C   0  0  0  0  0  0  0  0  0  0  0  0
   -2.7347   -3.8936    0.0000 C   0  0  0  0  0  0  0  0  0  0  0  0
   -1.2354   -3.9397    0.0000 C   0  0  0  0  0  0  0  0  0  0  0  0
    3.4223    1.1156    0.0000 C   0  0  0  0  0  0  0  0  0  0  0  0
    4.2119    2.3909    0.0000 C   0  0  0  0  0  0  0  0  0  0  0  0
    3.5022    3.7124    0.0000 C   0  0  0  0  0  0  0  0  0  0  0  0
    2.0029    3.7586    0.0000 C   0  0  0  0  0  0  0  0  0  0  0  0
    1.2932    5.0801    0.0000 F   0  0  0  0  0  0  0  0  0  0  0  0
    1.2133    2.4832    0.0000 C   0  0  0  0  0  0  0  0  0  0  0  0
    1.9230    1.1617    0.0000 C   0  0  0  0  0  0  0  0  0  0  0  0
    6.4209    1.0233    0.0000 C   0  0  0  0  0  0  0  0  0  0  0  0
    7.9202    0.9772    0.0000 C   0  0  0  0  0  0  0  0  0  0  0  0
  1  2  1  0
  2  3  2  0
  3  4  1  0
  4  5  2  0
  5  6  1  0
  6  7  1  0
  7  8  1  0
  8  9  1  0
  9 10  1  0
 10 11  1  0
 11 12  1  0
 12 13  1  0
 13 14  1  0
 14 15  1  0
 15 16  1  0
 16 17  1  0
 17 18  2  0
 18 19  1  0
 19 20  2  0
 20 21  1  0
 21 22  2  0
 13 23  1  0
 23 24  1  0
  6 25  1  0
 25 26  2  0
 26 27  1  0
 27 28  2  0
 28 29  1  0
 28 30  1  0
 30 31  2  0
  5 32  1  0
 32 33  2  0
 33  2  1  0
 24 10  1  0
 31 25  1  0
 22 17  1  0
M  END
> <Identifier>
VANOXERINE HYDROCHLORIDE

> <hERG>
1

$$$$

     RDKit          2D

 32 36  0  0  0  0  0  0  0  0999 V2000
   -9.9758    1.6136    0.0000 C   0  0  0  0  0  0  0  0  0  0  0  0
   -8.9410    0.5276    0.0000 S   0  0  0  0  0  0  0  0  0  0  0  0
   -7.8551    1.5624    0.0000 O   0  0  0  0  0  0  0  0  0  0  0  0
  -10.0270   -0.5071    0.0000 O   0  0  0  0  0  0  0  0  0  0  0  0
   -7.9063   -0.5583    0.0000 N   0  0  0  0  0  0  0  0  0  0  0  0
   -6.4484   -0.2052    0.0000 C   0  0  0  0  0  0  0  0  0  0  0  0
   -6.0253    1.2339    0.0000 C   0  0  0  0  0  0  0  0  0  0  0  0
   -4.5675    1.5871    0.0000 C   0  0  0  0  0  0  0  0  0  0  0  0
   -3.5328    0.5011    0.0000 C   0  0  0  0  0  0  0  0  0  0  0  0
   -3.9558   -0.9379    0.0000 C   0  0  0  0  0  0  0  0  0  0  0  0
   -5.4137   -1.2911    0.0000 C   0  0  0  0  0  0  0  0  0  0  0  0
   -2.9211   -2.0239    0.0000 C   0  0  0  0  0  0  0  0  0  0  0  0
   -3.3442   -3.4630    0.0000 O   0  0  0  0  0  0  0  0  0  0  0  0
   -1.4632   -1.6707    0.0000 C   0  0  0  0  0  0  0  0  0  0  0  0
   -1.0402   -0.2316    0.0000 C   0  0  0  0  0  0  0  0  0  0  0  0
   -0.0054   -1.3176    0.0000 C   0  0  0  0  0  0  0  0  0  0  0  0
    1.4524   -0.9644    0.0000 C   0  0  0  0  0  0  0  0  0  0  0  0
    1.8755    0.4747    0.0000 N   0  0  0  0  0  0  0  0  0  0  0  0
    3.3333    0.8278    0.0000 C   0  0  0  0  0  0  0  0  0  0  0  0
    4.3681   -0.2581    0.0000 C   0  0  0  0  0  0  0  0  0  0  0  0
    5.8259    0.0950    0.0000 C   0  0  0  0  0  0  0  0  0  0  0  0
    6.2490    1.5341    0.0000 C   0  0  0  0  0  0  0  0  0  0  0  0
    7.7068    1.8873    0.0000 C   0  0  0  0  0  0  0  0  0  0  0  0
    8.7416    0.8013    0.0000 C   0  0  0  0  0  0  0  0  0  0  0  0
   10.2410    0.8436    0.0000 N   0  0  0  0  0  0  0  0  0  0  0  0
   10.7446   -0.5693    0.0000 O   0  0  0  0  0  0  0  0  0  0  0  0
    9.5564   -1.4849    0.0000 N   0  0  0  0  0  0  0  0  0  0  0  0
    8.3185   -0.6378    0.0000 C   0  0  0  0  0  0  0  0  0  0  0  0
    6.8607   -0.9909    0.0000 C   0  0  0  0  0  0  0  0  0  0  0  0
    0.8407    1.5606    0.0000 C   0  0  0  0  0  0  0  0  0  0  0  0
   -0.6171    1.2075    0.0000 C   0  0  0  0  0  0  0  0  0  0  0  0
   -2.0749    0.8543    0.0000 O   0  0  0  0  0  0  0  0  0  0  0  0
  1  2  1  0
  2  3  2  0
  2  4  2  0
  2  5  1  0
  5  6  1  0
  6  7  2  0
  7  8  1  0
  8  9  2  0
  9 10  1  0
 10 11  2  0
 10 12  1  0
 12 13  2  0
 12 14  1  0
 14 15  1  0
 15 16  1  0
 16 17  1  0
 17 18  1  0
 18 19  1  0
 19 20  1  0
 20 21  1  0
 21 22  1  0
 22 23  2  0
 23 24  1  0
 24 25  2  0
 25 26  1  0
 26 27  1  0
 27 28  2  0
 28 29  1  0
 18 30  1  0
 30 31  1  0
 15 32  1  0
 11  6  1  0
 31 15  1  0
 32  9  1  0
 29 21  2  0
 28 24  1  0
M  END
> <Identifier>
L-691121

> <hERG>
1

$$$$

     RDKit          2D

 35 38  0  0  0  0  0  0  0  0999 V2000
  -10.6582    0.9973    0.0000 C   0  0  0  0  0  0  0  0  0  0  0  0
  -10.2923   -0.4574    0.0000 C   0  0  0  0  0  0  0  0  0  0  0  0
   -9.9263   -1.9121    0.0000 C   0  0  0  0  0  0  0  0  0  0  0  0
  -11.7469   -0.8233    0.0000 C   0  0  0  0  0  0  0  0  0  0  0  0
   -8.8376   -0.0914    0.0000 C   0  0  0  0  0  0  0  0  0  0  0  0
   -8.4272    1.3513    0.0000 C   0  0  0  0  0  0  0  0  0  0  0  0
   -6.9725    1.7173    0.0000 C   0  0  0  0  0  0  0  0  0  0  0  0
   -5.9282    0.6405    0.0000 C   0  0  0  0  0  0  0  0  0  0  0  0
   -4.4736    1.0064    0.0000 C   0  0  0  0  0  0  0  0  0  0  0  0
   -4.0631    2.4492    0.0000 O   0  0  0  0  0  0  0  0  0  0  0  0
   -3.4293   -0.0704    0.0000 C   0  0  0  0  0  0  0  0  0  0  0  0
   -1.9746    0.2955    0.0000 C   0  0  0  0  0  0  0  0  0  0  0  0
   -0.9304   -0.7813    0.0000 C   0  0  0  0  0  0  0  0  0  0  0  0
    0.5243   -0.4153    0.0000 N   0  0  0  0  0  4  0  0  0  0  0  0
    1.5686   -1.4921    0.0000 C   0  0  0  0  0  0  0  0  0  0  0  0
    3.0232   -1.1262    0.0000 C   0  0  0  0  0  0  0  0  0  0  0  0
    3.4337    0.3166    0.0000 C   0  0  0  0  0  0  0  0  0  0  0  0
    4.8883    0.6825    0.0000 C   0  0  0  0  0  0  0  0  0  0  0  0
    4.5224    2.1372    0.0000 O   0  0  0  0  0  0  0  0  0  0  0  0
    6.3430    1.0485    0.0000 C   0  0  0  0  0  0  0  0  0  0  0  0
    7.3873   -0.0283    0.0000 C   0  0  0  0  0  0  0  0  0  0  0  0
    8.8419    0.3376    0.0000 C   0  0  0  0  0  0  0  0  0  0  0  0
    9.2524    1.7804    0.0000 C   0  0  0  0  0  0  0  0  0  0  0  0
    8.2081    2.8572    0.0000 C   0  0  0  0  0  0  0  0  0  0  0  0
    6.7534    2.4912    0.0000 C   0  0  0  0  0  0  0  0  0  0  0  0
    5.2543   -0.7722    0.0000 C   0  0  0  0  0  0  0  0  0  0  0  0
    4.1775   -1.8164    0.0000 C   0  0  0  0  0  0  0  0  0  0  0  0
    4.5434   -3.2711    0.0000 C   0  0  0  0  0  0  0  0  0  0  0  0
    5.9862   -3.6815    0.0000 C   0  0  0  0  0  0  0  0  0  0  0  0
    7.0630   -2.6372    0.0000 C   0  0  0  0  0  0  0  0  0  0  0  0
    6.6970   -1.1826    0.0000 C   0  0  0  0  0  0  0  0  0  0  0  0
    2.3894    1.3934    0.0000 C   0  0  0  0  0  0  0  0  0  0  0  0
    0.9347    1.0274    0.0000 C   0  0  0  0  0  0  0  0  0  0  0  0
   -6.3387   -0.8023    0.0000 C   0  0  0  0  0  0  0  0  0  0  0  0
   -7.7933   -1.1683    0.0000 C   0  0  0  0  0  0  0  0  0  0  0  0
  1  2  1  0
  2  3  1  0
  2  4  1  0
  2  5  1  0
  5  6  2  0
  6  7  1  0
  7  8  2  0
  8  9  1  0
  9 10  1  1
  9 11  1  0
 11 12  1  0
 12 13  1  0
 13 14  1  0
 14 15  1  0
 15 16  1  0
 16 17  1  0
 17 18  1  0
 18 19  1  0
 18 20  1  0
 20 21  2  0
 21 22  1  0
 22 23  2  0
 23 24  1  0
 24 25  2  0
 18 26  1  0
 26 27  2  0
 27 28  1  0
 28 29  2  0
 29 30  1  0
 30 31  2  0
 17 32  1  0
 32 33  1  0
  8 34  1  0
 34 35  2  0
 35  5  1  0
 33 14  1  0
 25 20  1  0
 31 26  1  0
M  CHG  1  14   1
M  END
> <Identifier>
TERFENADINE

> <hERG>
1

$$$$

     RDKit          2D

 31 35  0  0  0  0  0  0  0  0999 V2000
   -8.1566    1.9197    0.0000 O   0  0  0  0  0  0  0  0  0  0  0  0
   -8.2977    0.4264    0.0000 C   0  0  0  0  0  0  0  0  0  0  0  0
   -9.5888   -0.3372    0.0000 N   0  0  0  0  0  0  0  0  0  0  0  0
   -9.2616   -1.8011    0.0000 C   0  0  0  0  0  0  0  0  0  0  0  0
   -7.7682   -1.9422    0.0000 C   0  0  0  0  0  0  0  0  0  0  0  0
   -7.1725   -0.5655    0.0000 N   0  0  0  0  0  0  0  0  0  0  0  0
   -5.7087   -0.2383    0.0000 C   0  0  0  0  0  0  0  0  0  0  0  0
   -4.6933   -1.3424    0.0000 C   0  0  0  0  0  0  0  0  0  0  0  0
   -3.2295   -1.0151    0.0000 N   0  0  0  0  0  0  0  0  0  0  0  0
   -2.2141   -2.1192    0.0000 C   0  0  0  0  0  0  0  0  0  0  0  0
   -0.7502   -1.7920    0.0000 C   0  0  0  0  0  0  0  0  0  0  0  0
   -0.3017   -0.3606    0.0000 C   0  0  0  0  0  0  0  0  0  0  0  0
    1.1621   -0.0333    0.0000 C   0  0  0  0  0  0  0  0  0  0  0  0
    2.2873   -1.0252    0.0000 C   0  0  0  0  0  0  0  0  0  0  0  0
    3.5784   -0.2616    0.0000 N   0  0  0  0  0  0  0  0  0  0  0  0
    4.9551   -0.8573    0.0000 C   0  0  0  0  0  0  0  0  0  0  0  0
    5.1275   -2.3474    0.0000 C   0  0  0  0  0  0  0  0  0  0  0  0
    6.5042   -2.9430    0.0000 C   0  0  0  0  0  0  0  0  0  0  0  0
    7.7084   -2.0487    0.0000 C   0  0  0  0  0  0  0  0  0  0  0  0
    9.0850   -2.6443    0.0000 F   0  0  0  0  0  0  0  0  0  0  0  0
    7.5359   -0.5586    0.0000 C   0  0  0  0  0  0  0  0  0  0  0  0
    6.1593    0.0371    0.0000 C   0  0  0  0  0  0  0  0  0  0  0  0
    3.2512    1.2022    0.0000 C   0  0  0  0  0  0  0  0  0  0  0  0
    4.1200    2.4249    0.0000 C   0  0  0  0  0  0  0  0  0  0  0  0
    3.4956    3.7888    0.0000 C   0  0  0  0  0  0  0  0  0  0  0  0
    2.0022    3.9299    0.0000 C   0  0  0  0  0  0  0  0  0  0  0  0
    1.3777    5.2937    0.0000 Cl  0  0  0  0  0  0  0  0  0  0  0  0
    1.1333    2.7072    0.0000 C   0  0  0  0  0  0  0  0  0  0  0  0
    1.7578    1.3433    0.0000 C   0  0  0  0  0  0  0  0  0  0  0  0
   -1.3171    0.7435    0.0000 C   0  0  0  0  0  0  0  0  0  0  0  0
   -2.7809    0.4163    0.0000 C   0  0  0  0  0  0  0  0  0  0  0  0
  1  2  2  0
  2  3  1  0
  3  4  1  0
  4  5  1  0
  5  6  1  0
  6  7  1  0
  7  8  1  0
  8  9  1  0
  9 10  1  0
 10 11  1  0
 11 12  2  0
 12 13  1  0
 13 14  2  0
 14 15  1  0
 15 16  1  0
 16 17  2  0
 17 18  1  0
 18 19  2  0
 19 20  1  0
 19 21  1  0
 21 22  2  0
 15 23  1  0
 23 24  2  0
 24 25  1  0
 25 26  2  0
 26 27  1  0
 26 28  1  0
 28 29  2  0
 12 30  1  0
 30 31  1  0
  6  2  1  0
 31  9  1  0
 29 13  1  0
 22 16  1  0
 29 23  1  0
M  END
> <Identifier>
BMCL20031829_02

> <hERG>
1

$$$$

     RDKit          2D

 29 30  0  0  0  0  0  0  0  0999 V2000
   -1.8347   -5.5102    0.0000 C   0  0  0  0  0  0  0  0  0  0  0  0
   -1.0851   -4.2110    0.0000 N   0  0  0  0  0  4  0  0  0  0  0  0
    0.4149   -4.2106    0.0000 C   0  0  0  0  0  0  0  0  0  0  0  0
    1.1646   -2.9113    0.0000 C   0  0  0  0  0  0  0  0  0  0  0  0
    2.6646   -2.9109    0.0000 O   0  0  0  0  0  0  0  0  0  0  0  0
    3.4142   -1.6117    0.0000 C   0  0  0  0  0  0  0  0  0  0  0  0
    4.9142   -1.6113    0.0000 C   0  0  0  0  0  0  0  0  0  0  0  0
    5.6639   -0.3120    0.0000 C   0  0  0  0  0  0  0  0  0  0  0  0
    4.9135    0.9868    0.0000 C   0  0  0  0  0  0  0  0  0  0  0  0
    5.6632    2.2861    0.0000 N   0  0  0  0  0  0  0  0  0  0  0  0
    7.1632    2.2865    0.0000 S   0  0  0  0  0  0  0  0  0  0  0  0
    8.6632    2.2869    0.0000 C   0  0  0  0  0  0  0  0  0  0  0  0
    7.1636    0.7865    0.0000 O   0  0  0  0  0  0  0  0  0  0  0  0
    7.1628    3.7865    0.0000 O   0  0  0  0  0  0  0  0  0  0  0  0
    3.4135    0.9864    0.0000 C   0  0  0  0  0  0  0  0  0  0  0  0
    2.6639   -0.3128    0.0000 C   0  0  0  0  0  0  0  0  0  0  0  0
   -1.8354   -2.9121    0.0000 C   0  0  0  0  0  0  0  0  0  0  0  0
   -3.3354   -2.9125    0.0000 C   0  0  0  0  0  0  0  0  0  0  0  0
   -4.0858   -1.6137    0.0000 C   0  0  0  0  0  0  0  0  0  0  0  0
   -3.3361   -0.3145    0.0000 C   0  0  0  0  0  0  0  0  0  0  0  0
   -4.0865    0.9844    0.0000 C   0  0  0  0  0  0  0  0  0  0  0  0
   -5.5865    0.9840    0.0000 C   0  0  0  0  0  0  0  0  0  0  0  0
   -6.3368    2.2828    0.0000 N   0  0  0  0  0  0  0  0  0  0  0  0
   -5.5872    3.5820    0.0000 S   0  0  0  0  0  0  0  0  0  0  0  0
   -4.8375    4.8813    0.0000 C   0  0  0  0  0  0  0  0  0  0  0  0
   -4.2879    2.8324    0.0000 O   0  0  0  0  0  0  0  0  0  0  0  0
   -6.8864    4.3317    0.0000 O   0  0  0  0  0  0  0  0  0  0  0  0
   -6.3361   -0.3153    0.0000 C   0  0  0  0  0  0  0  0  0  0  0  0
   -5.5858   -1.6141    0.0000 C   0  0  0  0  0  0  0  0  0  0  0  0
  1  2  1  0
  2  3  1  0
  3  4  1  0
  4  5  1  0
  5  6  1  0
  6  7  2  0
  7  8  1  0
  8  9  2  0
  9 10  1  0
 10 11  1  0
 11 12  1  0
 11 13  2  0
 11 14  2  0
  9 15  1  0
 15 16  2  0
  2 17  1  0
 17 18  1  0
 18 19  1  0
 19 20  2  0
 20 21  1  0
 21 22  2  0
 22 23  1  0
 23 24  1  0
 24 25  1  0
 24 26  2  0
 24 27  2  0
 22 28  1  0
 28 29  2  0
 16  6  1  0
 29 19  1  0
M  CHG  1   2   1
M  END
> <Identifier>
DOFETILIDE

> <hERG>
1

$$$$

     RDKit          2D

 21 23  0  0  0  0  0  0  0  0999 V2000
   -1.1648   -5.1558    0.0000 C   0  0  0  0  0  0  0  0  0  0  0  0
   -0.1884   -4.0170    0.0000 N   0  0  0  0  0  0  0  0  0  0  0  0
    1.2859   -4.2932    0.0000 C   0  0  0  0  0  0  0  0  0  0  0  0
   -0.6865   -2.6021    0.0000 C   0  0  0  0  0  0  0  0  0  0  0  0
    0.2899   -1.4634    0.0000 C   0  0  0  0  0  0  0  0  0  0  0  0
    1.7850   -1.5839    0.0000 C   0  0  0  0  0  0  0  0  0  0  0  0
    2.3617   -0.1992    0.0000 C   0  0  0  0  0  0  0  0  0  0  0  0
    3.7766    0.2989    0.0000 C   0  0  0  0  0  0  0  0  0  0  0  0
    4.0527    1.7732    0.0000 C   0  0  0  0  0  0  0  0  0  0  0  0
    5.4677    2.2712    0.0000 Cl  0  0  0  0  0  0  0  0  0  0  0  0
    2.9140    2.7495    0.0000 C   0  0  0  0  0  0  0  0  0  0  0  0
    1.4991    2.2515    0.0000 C   0  0  0  0  0  0  0  0  0  0  0  0
    1.2229    0.7772    0.0000 C   0  0  0  0  0  0  0  0  0  0  0  0
   -0.0575   -0.0042    0.0000 N   0  0  0  0  0  0  0  0  0  0  0  0
   -1.4423    0.5725    0.0000 C   0  0  0  0  0  0  0  0  0  0  0  0
   -1.6352    2.0600    0.0000 C   0  0  0  0  0  0  0  0  0  0  0  0
   -3.0199    2.6367    0.0000 C   0  0  0  0  0  0  0  0  0  0  0  0
   -4.2117    1.7258    0.0000 C   0  0  0  0  0  0  0  0  0  0  0  0
   -5.5964    2.3024    0.0000 F   0  0  0  0  0  0  0  0  0  0  0  0
   -4.0187    0.2383    0.0000 C   0  0  0  0  0  0  0  0  0  0  0  0
   -2.6340   -0.3384    0.0000 C   0  0  0  0  0  0  0  0  0  0  0  0
  1  2  1  0
  2  3  1  0
  2  4  1  0
  4  5  1  0
  5  6  2  0
  6  7  1  0
  7  8  2  0
  8  9  1  0
  9 10  1  0
  9 11  2  0
 11 12  1  0
 12 13  2  0
 13 14  1  0
 14 15  1  0
 15 16  2  0
 16 17  1  0
 17 18  2  0
 18 19  1  0
 18 20  1  0
 20 21  2  0
 14  5  1  0
 21 15  1  0
 13  7  1  0
M  END
> <Identifier>
BMCL20031829_15

> <hERG>
1

$$$$

     RDKit          2D

 54 61  0  0  0  0  0  0  0  0999 V2000
   -2.1059    3.6052    0.0000 C   0  0  0  0  0  0  0  0  0  0  0  0
   -3.5022    4.1534    0.0000 C   0  0  0  0  0  0  0  0  0  0  0  0
   -4.6751    3.2183    0.0000 O   0  0  0  0  0  0  0  0  0  0  0  0
   -6.0713    3.7665    0.0000 C   0  0  0  0  0  0  0  0  0  0  0  0
   -7.2442    2.8314    0.0000 O   0  0  0  0  0  0  0  0  0  0  0  0
   -7.0208    1.3482    0.0000 C   0  0  0  0  0  0  0  0  0  0  0  0
   -8.1937    0.4131    0.0000 C   0  0  0  0  0  0  0  0  0  0  0  0
   -9.5899    0.9613    0.0000 O   0  0  0  0  0  0  0  0  0  0  0  0
   -7.9703   -1.0702    0.0000 C   0  0  0  0  0  0  0  0  0  0  0  0
   -6.5741   -1.6184    0.0000 C   0  0  0  0  0  0  0  0  0  0  0  0
   -6.3507   -3.1017    0.0000 O   0  0  0  0  0  0  0  0  0  0  0  0
   -4.9545   -3.6499    0.0000 C   0  0  0  0  0  0  0  0  0  0  0  0
   -4.7311   -5.1331    0.0000 C   0  0  0  0  0  0  0  0  0  0  0  0
   -5.9040   -6.0682    0.0000 O   0  0  0  0  0  0  0  0  0  0  0  0
   -3.3348   -5.6813    0.0000 C   0  0  0  0  0  0  0  0  0  0  0  0
   -2.1620   -4.7462    0.0000 C   0  0  0  0  0  0  0  0  0  0  0  0
   -0.7657   -5.2944    0.0000 O   0  0  0  0  0  0  0  0  0  0  0  0
    0.4071   -4.3594    0.0000 C   0  0  0  0  0  0  0  0  0  0  0  0
    1.8034   -4.9076    0.0000 C   0  0  0  0  0  0  0  0  0  0  0  0
    2.9762   -3.9725    0.0000 C   0  0  0  0  0  0  0  0  0  0  0  0
    2.7529   -2.4892    0.0000 C   0  0  0  0  0  0  0  0  0  0  0  0
    4.1491   -3.0374    0.0000 C   0  0  0  0  0  0  0  0  0  0  0  0
    3.9257   -1.5541    0.0000 C   0  0  0  0  0  0  0  0  0  0  0  0
    5.3220   -2.1023    0.0000 C   0  0  0  0  0  0  0  0  0  0  0  0
    6.4949   -1.1672    0.0000 C   0  0  0  0  0  0  0  0  0  0  0  0
    6.2715    0.3160    0.0000 C   0  0  0  0  0  0  0  0  0  0  0  0
    7.7174   -0.0832    0.0000 C   0  0  0  0  0  0  0  0  0  0  0  0
    7.2243    1.4745    0.0000 C   0  0  0  0  0  0  0  0  0  0  0  0
    8.7216    1.3846    0.0000 C   0  0  0  0  0  0  0  0  0  0  0  0
    9.6744    2.5431    0.0000 C   0  0  0  0  0  0  0  0  0  0  0  0
   11.0707    1.9949    0.0000 C   0  0  0  0  0  0  0  0  0  0  0  0
   12.3349    2.8023    0.0000 O   0  0  0  0  0  0  0  0  0  0  0  0
   10.9808    0.4976    0.0000 O   0  0  0  0  0  0  0  0  0  0  0  0
    9.5290    0.1205    0.0000 C   0  0  0  0  0  0  0  0  0  0  0  0
    6.4169    2.7387    0.0000 C   0  0  0  0  0  0  0  0  0  0  0  0
    4.9651    2.3615    0.0000 C   0  0  0  0  0  0  0  0  0  0  0  0
    4.8752    0.8642    0.0000 C   0  0  0  0  0  0  0  0  0  0  0  0
    3.5440    1.5554    0.0000 O   0  0  0  0  0  0  0  0  0  0  0  0
    3.7024   -0.0708    0.0000 C   0  0  0  0  0  0  0  0  0  0  0  0
    2.3061    0.4773    0.0000 C   0  0  0  0  0  0  0  0  0  0  0  0
    1.1333   -0.4577    0.0000 C   0  0  0  0  0  0  0  0  0  0  0  0
    1.3566   -1.9410    0.0000 C   0  0  0  0  0  0  0  0  0  0  0  0
    0.1838   -2.8761    0.0000 C   0  0  0  0  0  0  0  0  0  0  0  0
   -2.3853   -3.2630    0.0000 O   0  0  0  0  0  0  0  0  0  0  0  0
   -3.7816   -2.7148    0.0000 C   0  0  0  0  0  0  0  0  0  0  0  0
   -4.0050   -1.2315    0.0000 C   0  0  0  0  0  0  0  0  0  0  0  0
   -5.4012   -0.6833    0.0000 O   0  0  0  0  0  0  0  0  0  0  0  0
   -5.6246    0.8000    0.0000 C   0  0  0  0  0  0  0  0  0  0  0  0
   -4.4517    1.7350    0.0000 C   0  0  0  0  0  0  0  0  0  0  0  0
   -6.2947    5.2498    0.0000 C   0  0  0  0  0  0  0  0  0  0  0  0
   -5.1218    6.1849    0.0000 C   0  0  0  0  0  0  0  0  0  0  0  0
   -5.3452    7.6681    0.0000 O   0  0  0  0  0  0  0  0  0  0  0  0
   -3.7256    5.6367    0.0000 C   0  0  0  0  0  0  0  0  0  0  0  0
   -2.5527    6.5718    0.0000 O   0  0  0  0  0  0  0  0  0  0  0  0
  2  1  1  1
  2  3  1  0
  3  4  1  0
  4  5  1  1
  6  5  1  6
  6  7  1  0
  7  8  1  6
  7  9  1  0
  9 10  1  0
 10 11  1  1
 12 11  1  6
 12 13  1  0
 13 14  1  6
 13 15  1  0
 15 16  1  0
 16 17  1  1
 18 17  1  6
 18 19  1  0
 19 20  1  0
 20 21  1  0
 21 22  1  6
 21 23  1  0
 23 24  1  6
 24 25  1  0
 25 26  1  0
 26 27  1  6
 26 28  1  0
 28 29  1  6
 29 30  2  0
 30 31  1  0
 31 32  2  0
 31 33  1  0
 33 34  1  0
 28 35  1  0
 35 36  1  0
 36 37  1  0
 37 38  1  6
 37 39  1  0
 39 40  1  1
 40 41  1  0
 42 41  1  1
 42 43  1  0
 16 44  1  0
 44 45  1  0
 45 46  1  1
 10 47  1  0
 47 48  1  0
 48 49  1  1
  4 50  1  0
 50 51  1  0
 51 52  1  6
 51 53  1  0
 53 54  1  6
 53  2  1  0
 48  6  1  0
 45 12  1  0
 43 18  1  0
 42 21  1  0
 39 23  1  0
 37 26  1  0
 34 29  1  0
M  END
> <Identifier>
DIGITOXIN

> <hERG>
1

$$$$

     RDKit          2D

 34 38  0  0  0  0  0  0  0  0999 V2000
   -9.8794    2.1739    0.0000 C   0  0  0  0  0  0  0  0  0  0  0  0
   -9.4398    0.7398    0.0000 O   0  0  0  0  0  0  0  0  0  0  0  0
   -7.9780    0.4034    0.0000 C   0  0  0  0  0  0  0  0  0  0  0  0
   -6.9558    1.5012    0.0000 C   0  0  0  0  0  0  0  0  0  0  0  0
   -5.4940    1.1648    0.0000 C   0  0  0  0  0  0  0  0  0  0  0  0
   -5.0544   -0.2693    0.0000 C   0  0  0  0  0  0  0  0  0  0  0  0
   -3.5926   -0.6057    0.0000 C   0  0  0  0  0  0  0  0  0  0  0  0
   -3.1530   -2.0398    0.0000 C   0  0  0  0  0  0  0  0  0  0  0  0
   -1.6912   -2.3762    0.0000 N   0  0  0  0  0  4  0  0  0  0  0  0
   -1.2516   -3.8104    0.0000 C   0  0  0  0  0  0  0  0  0  0  0  0
    0.2102   -4.1467    0.0000 C   0  0  0  0  0  0  0  0  0  0  0  0
    1.2324   -3.0490    0.0000 C   0  0  0  0  0  0  0  0  0  0  0  0
    2.6942   -3.3853    0.0000 N   0  0  0  0  0  0  0  0  0  0  0  0
    3.7164   -2.2876    0.0000 C   0  0  0  0  0  0  0  0  0  0  0  0
    5.2054   -2.4693    0.0000 N   0  0  0  0  0  0  0  0  0  0  0  0
    5.8383   -1.1094    0.0000 C   0  0  0  0  0  0  0  0  0  0  0  0
    7.2725   -0.6698    0.0000 C   0  0  0  0  0  0  0  0  0  0  0  0
    7.6088    0.7920    0.0000 C   0  0  0  0  0  0  0  0  0  0  0  0
    6.5111    1.8142    0.0000 C   0  0  0  0  0  0  0  0  0  0  0  0
    5.0769    1.3746    0.0000 C   0  0  0  0  0  0  0  0  0  0  0  0
    4.7405   -0.0872    0.0000 C   0  0  0  0  0  0  0  0  0  0  0  0
    3.4291   -0.8153    0.0000 N   0  0  0  0  0  0  0  0  0  0  0  0
    2.0692   -0.1824    0.0000 C   0  0  0  0  0  0  0  0  0  0  0  0
    1.9374    1.3118    0.0000 C   0  0  0  0  0  0  0  0  0  0  0  0
    3.1655    2.1731    0.0000 C   0  0  0  0  0  0  0  0  0  0  0  0
    3.0337    3.6673    0.0000 C   0  0  0  0  0  0  0  0  0  0  0  0
    1.6738    4.3002    0.0000 C   0  0  0  0  0  0  0  0  0  0  0  0
    1.5420    5.7944    0.0000 F   0  0  0  0  0  0  0  0  0  0  0  0
    0.4457    3.4390    0.0000 C   0  0  0  0  0  0  0  0  0  0  0  0
    0.5775    1.9448    0.0000 C   0  0  0  0  0  0  0  0  0  0  0  0
    0.7928   -1.6148    0.0000 C   0  0  0  0  0  0  0  0  0  0  0  0
   -0.6690   -1.2784    0.0000 C   0  0  0  0  0  0  0  0  0  0  0  0
   -6.0766   -1.3671    0.0000 C   0  0  0  0  0  0  0  0  0  0  0  0
   -7.5384   -1.0307    0.0000 C   0  0  0  0  0  0  0  0  0  0  0  0
  1  2  1  0
  2  3  1  0
  3  4  2  0
  4  5  1  0
  5  6  2  0
  6  7  1  0
  7  8  1  0
  8  9  1  0
  9 10  1  0
 10 11  1  0
 11 12  1  0
 12 13  1  0
 13 14  1  0
 14 15  2  0
 15 16  1  0
 16 17  2  0
 17 18  1  0
 18 19  2  0
 19 20  1  0
 20 21  2  0
 21 22  1  0
 22 23  1  0
 23 24  1  0
 24 25  2  0
 25 26  1  0
 26 27  2  0
 27 28  1  0
 27 29  1  0
 29 30  2  0
 12 31  1  0
 31 32  1  0
  6 33  1  0
 33 34  2  0
 34  3  1  0
 32  9  1  0
 22 14  1  0
 30 24  1  0
 21 16  1  0
M  CHG  1   9   1
M  END
> <Identifier>
ASTEMIZOLE

> <hERG>
1

$$$$

     RDKit          2D

 24 26  0  0  0  0  0  0  0  0999 V2000
   -6.2383    1.7157    0.0000 C   0  0  0  0  0  0  0  0  0  0  0  0
   -5.8675    0.2622    0.0000 N   0  0  0  0  0  4  0  0  0  0  0  0
   -6.8254   -0.8920    0.0000 C   0  0  0  0  0  0  0  0  0  0  0  0
   -6.0237   -2.1598    0.0000 C   0  0  0  0  0  0  0  0  0  0  0  0
   -4.5702   -1.7890    0.0000 C   0  0  0  0  0  0  0  0  0  0  0  0
   -4.4737   -0.2921    0.0000 C   0  0  0  0  0  0  0  0  0  0  0  0
   -3.2059    0.5096    0.0000 C   0  0  0  0  0  0  0  0  0  0  0  0
   -1.8777   -0.1874    0.0000 C   0  0  0  0  0  0  0  0  0  0  0  0
   -0.6100    0.6144    0.0000 O   0  0  0  0  0  0  0  0  0  0  0  0
    0.7182   -0.0826    0.0000 C   0  0  0  0  0  0  0  0  0  0  0  0
    0.0212   -1.4109    0.0000 C   0  0  0  0  0  0  0  0  0  0  0  0
    1.4153    1.2456    0.0000 C   0  0  0  0  0  0  0  0  0  0  0  0
    2.9140    1.3061    0.0000 C   0  0  0  0  0  0  0  0  0  0  0  0
    3.6111    2.6343    0.0000 C   0  0  0  0  0  0  0  0  0  0  0  0
    2.8093    3.9020    0.0000 C   0  0  0  0  0  0  0  0  0  0  0  0
    1.3105    3.8415    0.0000 C   0  0  0  0  0  0  0  0  0  0  0  0
    0.6135    2.5133    0.0000 C   0  0  0  0  0  0  0  0  0  0  0  0
    2.0465   -0.7797    0.0000 C   0  0  0  0  0  0  0  0  0  0  0  0
    2.1069   -2.2784    0.0000 C   0  0  0  0  0  0  0  0  0  0  0  0
    3.4352   -2.9755    0.0000 C   0  0  0  0  0  0  0  0  0  0  0  0
    4.7029   -2.1737    0.0000 C   0  0  0  0  0  0  0  0  0  0  0  0
    6.0311   -2.8707    0.0000 Cl  0  0  0  0  0  0  0  0  0  0  0  0
    4.6424   -0.6749    0.0000 C   0  0  0  0  0  0  0  0  0  0  0  0
    3.3142    0.0221    0.0000 C   0  0  0  0  0  0  0  0  0  0  0  0
  1  2  1  0
  2  3  1  0
  3  4  1  0
  4  5  1  0
  5  6  1  0
  6  7  1  1
  7  8  1  0
  8  9  1  0
  9 10  1  0
 10 11  1  1
 10 12  1  0
 12 13  2  0
 13 14  1  0
 14 15  2  0
 15 16  1  0
 16 17  2  0
 10 18  1  0
 18 19  2  0
 19 20  1  0
 20 21  2  0
 21 22  1  0
 21 23  1  0
 23 24  2  0
  6  2  1  0
 17 12  1  0
 24 18  1  0
M  CHG  1   2   1
M  END
> <Identifier>
CLEMASTINE

> <hERG>
1

$$$$

     RDKit          2D

 23 23  0  0  0  0  0  0  0  0999 V2000
   -9.5730   -2.4660    0.0000 C   0  0  0  0  0  0  0  0  0  0  0  0
   -8.0736   -2.4249    0.0000 C   0  0  0  0  0  0  0  0  0  0  0  0
   -7.3595   -1.1058    0.0000 C   0  0  0  0  0  0  0  0  0  0  0  0
   -5.8601   -1.0647    0.0000 C   0  0  0  0  0  0  0  0  0  0  0  0
   -5.1459    0.2544    0.0000 C   0  0  0  0  0  0  0  0  0  0  0  0
   -3.6465    0.2955    0.0000 C   0  0  0  0  0  0  0  0  0  0  0  0
   -2.9324    1.6146    0.0000 C   0  0  0  0  0  0  0  0  0  0  0  0
   -1.4330    1.6557    0.0000 N   0  0  0  0  0  4  0  0  0  0  0  0
   -1.4741    3.1552    0.0000 C   0  0  0  0  0  0  0  0  0  0  0  0
   -2.7932    3.8693    0.0000 C   0  0  0  0  0  0  0  0  0  0  0  0
   -1.3918    0.1563    0.0000 C   0  0  0  0  0  0  0  0  0  0  0  0
   -2.6698   -0.6290    0.0000 C   0  0  0  0  0  0  0  0  0  0  0  0
    0.0665    1.6969    0.0000 C   0  0  0  0  0  0  0  0  0  0  0  0
    0.8518    0.4189    0.0000 C   0  0  0  0  0  0  0  0  0  0  0  0
    2.3512    0.4600    0.0000 C   0  0  0  0  0  0  0  0  0  0  0  0
    3.1366   -0.8180    0.0000 C   0  0  0  0  0  0  0  0  0  0  0  0
    4.6360   -0.7769    0.0000 C   0  0  0  0  0  0  0  0  0  0  0  0
    5.3501    0.5422    0.0000 C   0  0  0  0  0  0  0  0  0  0  0  0
    6.8495    0.5833    0.0000 C   0  0  0  0  0  0  0  0  0  0  0  0
    7.6349   -0.6947    0.0000 C   0  0  0  0  0  0  0  0  0  0  0  0
    9.1343   -0.6536    0.0000 Cl  0  0  0  0  0  0  0  0  0  0  0  0
    6.9208   -2.0138    0.0000 C   0  0  0  0  0  0  0  0  0  0  0  0
    5.4213   -2.0549    0.0000 C   0  0  0  0  0  0  0  0  0  0  0  0
  1  2  1  0
  2  3  1  0
  3  4  1  0
  4  5  1  0
  5  6  1  0
  6  7  1  0
  7  8  1  0
  8  9  1  0
  9 10  1  0
  8 11  1  0
 11 12  1  0
  8 13  1  0
 13 14  1  0
 14 15  1  0
 15 16  1  0
 16 17  1  0
 17 18  2  0
 18 19  1  0
 19 20  2  0
 20 21  1  0
 20 22  1  0
 22 23  2  0
 23 17  1  0
M  CHG  1   8   1
M  END
> <Identifier>
CLOFILIUM

> <hERG>
1

$$$$

     RDKit          2D

 28 30  0  0  0  0  0  0  0  0999 V2000
   -7.6043   -3.5948    0.0000 C   0  0  0  0  0  0  0  0  0  0  0  0
   -7.4980   -2.0986    0.0000 C   0  0  0  0  0  0  0  0  0  0  0  0
   -8.7406   -1.2584    0.0000 C   0  0  0  0  0  0  0  0  0  0  0  0
   -8.6342    0.2379    0.0000 C   0  0  0  0  0  0  0  0  0  0  0  0
   -7.2852    0.8939    0.0000 C   0  0  0  0  0  0  0  0  0  0  0  0
   -6.0427    0.0536    0.0000 C   0  0  0  0  0  0  0  0  0  0  0  0
   -4.6937    0.7096    0.0000 C   0  0  0  0  0  0  0  0  0  0  0  0
   -3.4511   -0.1306    0.0000 C   0  0  0  0  0  0  0  0  0  0  0  0
   -2.1022    0.5254    0.0000 N   0  0  0  0  0  4  0  0  0  0  0  0
   -0.8596   -0.3148    0.0000 C   0  0  0  0  0  0  0  0  0  0  0  0
    0.4894    0.3412    0.0000 C   0  0  0  0  0  0  0  0  0  0  0  0
    0.5957    1.8374    0.0000 C   0  0  0  0  0  0  0  0  0  0  0  0
    1.9447    2.4934    0.0000 C   0  0  0  0  0  0  0  0  0  0  0  0
    2.0511    3.9896    0.0000 O   0  0  0  0  0  0  0  0  0  0  0  0
    3.1873    1.6531    0.0000 C   0  0  0  0  0  0  0  0  0  0  0  0
    3.0809    0.1569    0.0000 C   0  0  0  0  0  0  0  0  0  0  0  0
    4.3235   -0.6833    0.0000 C   0  0  0  0  0  0  0  0  0  0  0  0
    5.6724   -0.0273    0.0000 C   0  0  0  0  0  0  0  0  0  0  0  0
    6.9150   -0.8675    0.0000 N   0  0  0  0  0  0  0  0  0  0  0  0
    6.8087   -2.3638    0.0000 S   0  0  0  0  0  0  0  0  0  0  0  0
    6.7023   -3.8600    0.0000 C   0  0  0  0  0  0  0  0  0  0  0  0
    5.3124   -2.2574    0.0000 O   0  0  0  0  0  0  0  0  0  0  0  0
    8.3049   -2.4701    0.0000 O   0  0  0  0  0  0  0  0  0  0  0  0
    5.7788    1.4689    0.0000 C   0  0  0  0  0  0  0  0  0  0  0  0
    4.5362    2.3091    0.0000 C   0  0  0  0  0  0  0  0  0  0  0  0
   -0.6469    2.6776    0.0000 C   0  0  0  0  0  0  0  0  0  0  0  0
   -1.9958    2.0216    0.0000 C   0  0  0  0  0  0  0  0  0  0  0  0
   -6.1490   -1.4426    0.0000 N   0  0  0  0  0  0  0  0  0  0  0  0
  1  2  1  0
  2  3  2  0
  3  4  1  0
  4  5  2  0
  5  6  1  0
  6  7  1  0
  7  8  1  0
  8  9  1  0
  9 10  1  0
 10 11  1  0
 11 12  1  0
 12 13  1  0
 13 14  2  0
 13 15  1  0
 15 16  2  0
 16 17  1  0
 17 18  2  0
 18 19  1  0
 19 20  1  0
 20 21  1  0
 20 22  2  0
 20 23  2  0
 18 24  1  0
 24 25  2  0
 12 26  1  0
 26 27  1  0
  6 28  2  0
 28  2  1  0
 27  9  1  0
 25 15  1  0
M  CHG  1   9   1
M  END
> <Identifier>
E-4031

> <hERG>
1

$$$$

     RDKit          2D

 31 35  0  0  0  0  0  0  0  0999 V2000
   -8.1566    1.9197    0.0000 O   0  0  0  0  0  0  0  0  0  0  0  0
   -8.2977    0.4264    0.0000 C   0  0  0  0  0  0  0  0  0  0  0  0
   -9.5888   -0.3372    0.0000 N   0  0  0  0  0  0  0  0  0  0  0  0
   -9.2616   -1.8011    0.0000 C   0  0  0  0  0  0  0  0  0  0  0  0
   -7.7682   -1.9422    0.0000 C   0  0  0  0  0  0  0  0  0  0  0  0
   -7.1725   -0.5655    0.0000 N   0  0  0  0  0  0  0  0  0  0  0  0
   -5.7087   -0.2383    0.0000 C   0  0  0  0  0  0  0  0  0  0  0  0
   -4.6933   -1.3424    0.0000 C   0  0  0  0  0  0  0  0  0  0  0  0
   -3.2295   -1.0151    0.0000 N   0  0  0  0  0  4  0  0  0  0  0  0
   -2.2141   -2.1192    0.0000 C   0  0  0  0  0  0  0  0  0  0  0  0
   -0.7502   -1.7920    0.0000 C   0  0  0  0  0  0  0  0  0  0  0  0
   -0.3017   -0.3606    0.0000 C   0  0  0  0  0  0  0  0  0  0  0  0
    1.1621   -0.0333    0.0000 C   0  0  0  0  0  0  0  0  0  0  0  0
    2.2873   -1.0252    0.0000 C   0  0  0  0  0  0  0  0  0  0  0  0
    3.5784   -0.2616    0.0000 N   0  0  0  0  0  0  0  0  0  0  0  0
    4.9551   -0.8573    0.0000 C   0  0  0  0  0  0  0  0  0  0  0  0
    5.1275   -2.3474    0.0000 C   0  0  0  0  0  0  0  0  0  0  0  0
    6.5042   -2.9430    0.0000 C   0  0  0  0  0  0  0  0  0  0  0  0
    7.7084   -2.0487    0.0000 C   0  0  0  0  0  0  0  0  0  0  0  0
    9.0850   -2.6443    0.0000 F   0  0  0  0  0  0  0  0  0  0  0  0
    7.5359   -0.5586    0.0000 C   0  0  0  0  0  0  0  0  0  0  0  0
    6.1593    0.0371    0.0000 C   0  0  0  0  0  0  0  0  0  0  0  0
    3.2512    1.2022    0.0000 C   0  0  0  0  0  0  0  0  0  0  0  0
    4.1200    2.4249    0.0000 C   0  0  0  0  0  0  0  0  0  0  0  0
    3.4956    3.7888    0.0000 C   0  0  0  0  0  0  0  0  0  0  0  0
    2.0022    3.9299    0.0000 C   0  0  0  0  0  0  0  0  0  0  0  0
    1.3777    5.2937    0.0000 Cl  0  0  0  0  0  0  0  0  0  0  0  0
    1.1333    2.7072    0.0000 C   0  0  0  0  0  0  0  0  0  0  0  0
    1.7578    1.3433    0.0000 C   0  0  0  0  0  0  0  0  0  0  0  0
   -1.3171    0.7435    0.0000 C   0  0  0  0  0  0  0  0  0  0  0  0
   -2.7809    0.4163    0.0000 C   0  0  0  0  0  0  0  0  0  0  0  0
  1  2  2  0
  2  3  1  0
  3  4  1  0
  4  5  1  0
  5  6  1  0
  6  7  1  0
  7  8  1  0
  8  9  1  0
  9 10  1  0
 10 11  1  0
 11 12  1  0
 12 13  1  0
 13 14  2  0
 14 15  1  0
 15 16  1  0
 16 17  2  0
 17 18  1  0
 18 19  2  0
 19 20  1  0
 19 21  1  0
 21 22  2  0
 15 23  1  0
 23 24  2  0
 24 25  1  0
 25 26  2  0
 26 27  1  0
 26 28  1  0
 28 29  2  0
 12 30  1  0
 30 31  1  0
  6  2  1  0
 31  9  1  0
 29 13  1  0
 22 16  1  0
 29 23  1  0
M  CHG  1   9   1
M  END
> <Identifier>
SERTINDOLE

> <hERG>
1

$$$$

     RDKit          2D

 24 25  0  0  0  0  0  0  0  0999 V2000
   -3.2476   -4.3750    0.0000 C   0  0  0  0  0  0  0  0  0  0  0  0
   -3.2476   -2.8750    0.0000 C   0  0  0  0  0  0  0  0  0  0  0  0
   -4.5466   -2.1250    0.0000 C   0  0  0  0  0  0  0  0  0  0  0  0
   -4.5466   -0.6250    0.0000 C   0  0  0  0  0  0  0  0  0  0  0  0
   -3.2476    0.1250    0.0000 C   0  0  0  0  0  0  0  0  0  0  0  0
   -3.2476    1.6250    0.0000 O   0  0  0  0  0  0  0  0  0  0  0  0
   -1.9486   -0.6250    0.0000 C   0  0  0  0  0  0  0  0  0  0  0  0
   -0.6495    0.1250    0.0000 C   0  0  0  0  0  0  0  0  0  0  0  0
    0.6495   -0.6250    0.0000 C   0  0  0  0  0  0  0  0  0  0  0  0
    1.9486    0.1250    0.0000 C   0  0  0  0  0  0  0  0  0  0  0  0
    3.2476   -0.6250    0.0000 N   0  0  0  0  0  0  0  0  0  0  0  0
    4.5466    0.1250    0.0000 C   0  0  0  0  0  0  0  0  0  0  0  0
    5.8457   -0.6250    0.0000 C   0  0  0  0  0  0  0  0  0  0  0  0
    4.5466    1.6250    0.0000 C   0  0  0  0  0  0  0  0  0  0  0  0
    3.2476   -2.1250    0.0000 C   0  0  0  0  0  0  0  0  0  0  0  0
    4.5466   -2.8750    0.0000 C   0  0  0  0  0  0  0  0  0  0  0  0
    1.9486   -2.8750    0.0000 C   0  0  0  0  0  0  0  0  0  0  0  0
   -0.6495    1.6250    0.0000 C   0  0  0  0  0  0  0  0  0  0  0  0
    0.6495    2.3750    0.0000 C   0  0  0  0  0  0  0  0  0  0  0  0
    0.6495    3.8750    0.0000 C   0  0  0  0  0  0  0  0  0  0  0  0
   -0.6495    4.6250    0.0000 C   0  0  0  0  0  0  0  0  0  0  0  0
   -1.9486    3.8750    0.0000 C   0  0  0  0  0  0  0  0  0  0  0  0
   -1.9486    2.3750    0.0000 C   0  0  0  0  0  0  0  0  0  0  0  0
   -1.9486   -2.1250    0.0000 C   0  0  0  0  0  0  0  0  0  0  0  0
  1  2  1  0
  2  3  2  0
  3  4  1  0
  4  5  2  0
  5  6  1  0
  5  7  1  0
  7  8  1  0
  8  9  1  6
  9 10  1  0
 10 11  1  0
 11 12  1  0
 12 13  1  0
 12 14  1  0
 11 15  1  0
 15 16  1  0
 15 17  1  0
  8 18  1  0
 18 19  2  0
 19 20  1  0
 20 21  2  0
 21 22  1  0
 22 23  2  0
  7 24  2  0
 24  2  1  0
 23 18  1  0
M  END
> <Identifier>
TOLTERODINE TARTRATE

> <hERG>
1

$$$$

     RDKit          2D

 33 37  0  0  0  0  0  0  0  0999 V2000
   -9.8976    1.8827    0.0000 C   0  0  0  0  0  0  0  0  0  0  0  0
   -8.9227    0.7427    0.0000 S   0  0  0  0  0  0  0  0  0  0  0  0
   -7.7827    1.7176    0.0000 O   0  0  0  0  0  0  0  0  0  0  0  0
  -10.0626   -0.2322    0.0000 O   0  0  0  0  0  0  0  0  0  0  0  0
   -7.9477   -0.3973    0.0000 N   0  0  0  0  0  0  0  0  0  0  0  0
   -6.4730   -0.1230    0.0000 C   0  0  0  0  0  0  0  0  0  0  0  0
   -5.9732    1.2913    0.0000 C   0  0  0  0  0  0  0  0  0  0  0  0
   -4.4985    1.5656    0.0000 C   0  0  0  0  0  0  0  0  0  0  0  0
   -3.5236    0.4256    0.0000 C   0  0  0  0  0  0  0  0  0  0  0  0
   -4.0234   -0.9886    0.0000 C   0  0  0  0  0  0  0  0  0  0  0  0
   -5.4981   -1.2629    0.0000 C   0  0  0  0  0  0  0  0  0  0  0  0
   -3.0485   -2.1286    0.0000 C   0  0  0  0  0  0  0  0  0  0  0  0
   -3.5483   -3.5429    0.0000 O   0  0  0  0  0  0  0  0  0  0  0  0
   -1.5738   -1.8543    0.0000 C   0  0  0  0  0  0  0  0  0  0  0  0
   -1.0740   -0.4400    0.0000 C   0  0  0  0  0  0  0  0  0  0  0  0
   -0.0991   -1.5800    0.0000 C   0  0  0  0  0  0  0  0  0  0  0  0
    1.3756   -1.3057    0.0000 C   0  0  0  0  0  0  0  0  0  0  0  0
    1.8754    0.1086    0.0000 N   0  0  0  0  0  0  0  0  0  0  0  0
    3.3501    0.3829    0.0000 C   0  0  0  0  0  0  0  0  0  0  0  0
    3.8499    1.7972    0.0000 C   0  0  0  0  0  0  0  0  0  0  0  0
    5.3246    2.0715    0.0000 C   0  0  0  0  0  0  0  0  0  0  0  0
    6.2995    0.9315    0.0000 C   0  0  0  0  0  0  0  0  0  0  0  0
    7.7742    1.2058    0.0000 C   0  0  0  0  0  0  0  0  0  0  0  0
    8.7491    0.0659    0.0000 C   0  0  0  0  0  0  0  0  0  0  0  0
   10.2238    0.3402    0.0000 C   0  0  0  0  0  0  0  0  0  0  0  0
   11.6985    0.6145    0.0000 N   0  0  0  0  0  0  0  0  0  0  0  0
    8.2493   -1.3484    0.0000 C   0  0  0  0  0  0  0  0  0  0  0  0
    6.7746   -1.6227    0.0000 C   0  0  0  0  0  0  0  0  0  0  0  0
    5.7997   -0.4828    0.0000 C   0  0  0  0  0  0  0  0  0  0  0  0
    4.3250   -0.7571    0.0000 C   0  0  0  0  0  0  0  0  0  0  0  0
    0.9005    1.2486    0.0000 C   0  0  0  0  0  0  0  0  0  0  0  0
   -0.5742    0.9743    0.0000 C   0  0  0  0  0  0  0  0  0  0  0  0
   -2.0489    0.7000    0.0000 O   0  0  0  0  0  0  0  0  0  0  0  0
  1  2  1  0
  2  3  2  0
  2  4  2  0
  2  5  1  0
  5  6  1  0
  6  7  2  0
  7  8  1  0
  8  9  2  0
  9 10  1  0
 10 11  2  0
 10 12  1  0
 12 13  2  0
 12 14  1  0
 14 15  1  0
 15 16  1  0
 16 17  1  0
 17 18  1  0
 19 18  1  6
 19 20  1  0
 20 21  1  0
 21 22  1  0
 22 23  2  0
 23 24  1  0
 24 25  1  0
 25 26  3  0
 24 27  2  0
 27 28  1  0
 28 29  2  0
 29 30  1  0
 18 31  1  0
 31 32  1  0
 15 33  1  0
 11  6  1  0
 32 15  1  0
 33  9  1  0
 30 19  1  0
 29 22  1  0
M  END
> <Identifier>
L-702958

> <hERG>
1

$$$$

     RDKit          2D

 41 46  0  0  0  0  0  0  0  0999 V2000
   -5.4101    3.6938    0.0000 C   0  0  0  0  0  0  0  0  0  0  0  0
   -5.9898    2.3104    0.0000 C   0  0  0  0  0  0  0  0  0  0  0  0
   -5.0815    1.1166    0.0000 O   0  0  0  0  0  0  0  0  0  0  0  0
   -5.6611   -0.2668    0.0000 C   0  0  0  0  0  0  0  0  0  0  0  0
   -4.7528   -1.4606    0.0000 O   0  0  0  0  0  0  0  0  0  0  0  0
   -3.2649   -1.2708    0.0000 C   0  0  0  0  0  0  0  0  0  0  0  0
   -2.6852    0.1127    0.0000 C   0  0  0  0  0  0  0  0  0  0  0  0
   -1.1973    0.3024    0.0000 C   0  0  0  0  0  0  0  0  0  0  0  0
   -0.9811    1.0697    0.0000 O   0  0  0  0  0  0  0  0  0  0  0  0
   -0.2890   -0.8913    0.0000 C   0  0  0  0  0  0  0  0  0  0  0  0
    0.2907    0.4922    0.0000 C   0  0  0  0  0  0  0  0  0  0  0  0
   -0.1111    1.1807    0.0000 O   0  0  0  0  0  0  0  0  0  0  0  0
    1.1990   -0.7016    0.0000 C   0  0  0  0  0  0  0  0  0  0  0  0
    1.7786    0.6819    0.0000 C   0  0  0  0  0  0  0  0  0  0  0  0
    0.8703    1.8757    0.0000 O   0  0  0  0  0  0  0  0  0  0  0  0
    3.2666    0.8717    0.0000 C   0  0  0  0  0  0  0  0  0  0  0  0
    4.1749   -0.3220    0.0000 C   0  0  0  0  0  0  0  0  0  0  0  0
    4.8960    0.9933    0.0000 C   0  0  0  0  0  0  0  0  0  0  0  0
    5.6698   -0.4458    0.0000 C   0  0  0  0  0  0  0  0  0  0  0  0
    6.6486    0.6908    0.0000 C   0  0  0  0  0  0  0  0  0  0  0  0
    6.3043    2.1508    0.0000 C   0  0  0  0  0  0  0  0  0  0  0  0
    7.5865    2.9294    0.0000 C   0  0  0  0  0  0  0  0  0  0  0  0
    7.7102    4.4242    0.0000 O   0  0  0  0  0  0  0  0  0  0  0  0
    8.7231    1.9506    0.0000 O   0  0  0  0  0  0  0  0  0  0  0  0
    8.1435    0.5671    0.0000 C   0  0  0  0  0  0  0  0  0  0  0  0
    6.0140   -1.9058    0.0000 C   0  0  0  0  0  0  0  0  0  0  0  0
    4.7319   -2.6843    0.0000 C   0  0  0  0  0  0  0  0  0  0  0  0
    3.5953   -1.7055    0.0000 C   0  0  0  0  0  0  0  0  0  0  0  0
    3.1634   -3.1420    0.0000 O   0  0  0  0  0  0  0  0  0  0  0  0
    2.1073   -1.8953    0.0000 C   0  0  0  0  0  0  0  0  0  0  0  0
    1.5277   -3.2788    0.0000 C   0  0  0  0  0  0  0  0  0  0  0  0
    0.0397   -3.4685    0.0000 C   0  0  0  0  0  0  0  0  0  0  0  0
   -0.8686   -2.2748    0.0000 C   0  0  0  0  0  0  0  0  0  0  0  0
   -1.4482   -3.6583    0.0000 O   0  0  0  0  0  0  0  0  0  0  0  0
   -2.3565   -2.4645    0.0000 C   0  0  0  0  0  0  0  0  0  0  0  0
   -7.1491   -0.4566    0.0000 C   0  0  0  0  0  0  0  0  0  0  0  0
   -7.7287   -1.8401    0.0000 O   0  0  0  0  0  0  0  0  0  0  0  0
   -8.0574    0.7371    0.0000 C   0  0  0  0  0  0  0  0  0  0  0  0
   -9.5453    0.5474    0.0000 O   0  0  0  0  0  0  0  0  0  0  0  0
   -7.4777    2.1206    0.0000 C   0  0  0  0  0  0  0  0  0  0  0  0
   -8.3860    3.3143    0.0000 O   0  0  0  0  0  0  0  0  0  0  0  0
  2  1  1  6
  2  3  1  0
  3  4  1  0
  4  5  1  1
  6  5  1  6
  6  7  1  0
  7  8  1  0
  8  9  1  1
  8 10  1  0
 10 11  1  1
 11 12  1  0
 10 13  1  0
 13 14  1  1
 14 15  1  1
 14 16  1  0
 16 17  1  0
 17 18  1  1
 17 19  1  0
 19 20  1  6
 20 21  2  0
 21 22  1  0
 22 23  2  0
 22 24  1  0
 24 25  1  0
 19 26  1  0
 26 27  1  0
 27 28  1  0
 28 29  1  1
 28 30  1  0
 30 31  1  6
 31 32  1  0
 32 33  1  0
 33 34  1  6
 33 35  1  0
  4 36  1  0
 36 37  1  6
 36 38  1  0
 38 39  1  6
 38 40  1  0
 40 41  1  1
 40  2  1  0
 35  6  1  0
 33 10  1  0
 30 13  1  0
 28 17  1  0
 25 20  1  0
M  END
> <Identifier>
OUABAIN

> <hERG>
1

$$$$

     RDKit          2D

 36 39  0  0  0  0  0  0  0  0999 V2000
    4.9977    1.3952    0.0000 C   0  0  0  0  0  0  0  0  0  0  0  0
    6.4969    1.4455    0.0000 C   0  0  0  0  0  0  0  0  0  0  0  0
    7.2029    2.7689    0.0000 C   0  0  0  0  0  0  0  0  0  0  0  0
    8.7020    2.8192    0.0000 C   0  0  0  0  0  0  0  0  0  0  0  0
    9.4952    1.5460    0.0000 C   0  0  0  0  0  0  0  0  0  0  0  0
    8.7891    0.2226    0.0000 C   0  0  0  0  0  0  0  0  0  0  0  0
    9.5823   -1.0506    0.0000 C   0  0  0  0  0  0  0  0  0  0  0  0
    7.2900    0.1723    0.0000 C   0  0  0  0  0  0  0  0  0  0  0  0
    6.5840   -1.1511    0.0000 N   0  0  0  0  0  0  0  0  0  0  0  0
    5.0848   -1.2014    0.0000 C   0  0  0  0  0  0  0  0  0  0  0  0
    4.2917    0.0717    0.0000 O   0  0  0  0  0  0  0  0  0  0  0  0
    4.3788   -2.5249    0.0000 C   0  0  0  0  0  0  0  0  0  0  0  0
    2.8796   -2.5752    0.0000 N   0  0  0  0  0  4  0  0  0  0  0  0
    2.0865   -1.3020    0.0000 C   0  0  0  0  0  0  0  0  0  0  0  0
    0.5873   -1.3523    0.0000 C   0  0  0  0  0  0  0  0  0  0  0  0
   -0.1187   -2.6757    0.0000 N   0  0  0  0  0  4  0  0  0  0  0  0
   -1.6179   -2.7260    0.0000 C   0  0  0  0  0  0  0  0  0  0  0  0
   -2.4110   -1.4528    0.0000 C   0  0  0  0  0  0  0  0  0  0  0  0
   -3.9101   -1.5031    0.0000 C   0  0  0  0  0  0  0  0  0  0  0  0
   -4.7033   -0.2300    0.0000 C   0  0  0  0  0  0  0  0  0  0  0  0
   -6.2024   -0.2802    0.0000 C   0  0  0  0  0  0  0  0  0  0  0  0
   -6.9956    0.9929    0.0000 C   0  0  0  0  0  0  0  0  0  0  0  0
   -8.4947    0.9426    0.0000 C   0  0  0  0  0  0  0  0  0  0  0  0
   -9.2007   -0.3808    0.0000 C   0  0  0  0  0  0  0  0  0  0  0  0
  -10.6999   -0.4311    0.0000 F   0  0  0  0  0  0  0  0  0  0  0  0
   -8.4076   -1.6540    0.0000 C   0  0  0  0  0  0  0  0  0  0  0  0
   -6.9085   -1.6037    0.0000 C   0  0  0  0  0  0  0  0  0  0  0  0
   -3.9972    1.0935    0.0000 C   0  0  0  0  0  0  0  0  0  0  0  0
   -2.4981    1.1438    0.0000 C   0  0  0  0  0  0  0  0  0  0  0  0
   -1.7920    2.4672    0.0000 C   0  0  0  0  0  0  0  0  0  0  0  0
   -2.5852    3.7404    0.0000 C   0  0  0  0  0  0  0  0  0  0  0  0
   -1.8791    5.0638    0.0000 F   0  0  0  0  0  0  0  0  0  0  0  0
   -4.0843    3.6901    0.0000 C   0  0  0  0  0  0  0  0  0  0  0  0
   -4.7904    2.3667    0.0000 C   0  0  0  0  0  0  0  0  0  0  0  0
    0.6744   -3.9489    0.0000 C   0  0  0  0  0  0  0  0  0  0  0  0
    2.1736   -3.8986    0.0000 C   0  0  0  0  0  0  0  0  0  0  0  0
  1  2  1  0
  2  3  2  0
  3  4  1  0
  4  5  2  0
  5  6  1  0
  6  7  1  0
  6  8  2  0
  8  9  1  0
  9 10  1  0
 10 11  2  0
 10 12  1  0
 12 13  1  0
 13 14  1  0
 14 15  1  0
 15 16  1  0
 16 17  1  0
 17 18  1  0
 18 19  1  0
 19 20  1  0
 20 21  1  0
 21 22  2  0
 22 23  1  0
 23 24  2  0
 24 25  1  0
 24 26  1  0
 26 27  2  0
 20 28  1  0
 28 29  2  0
 29 30  1  0
 30 31  2  0
 31 32  1  0
 31 33  1  0
 33 34  2  0
 16 35  1  0
 35 36  1  0
  8  2  1  0
 36 13  1  0
 27 21  1  0
 34 28  1  0
M  CHG  2  13   1  16   1
M  END
> <Identifier>
LIDOFLAZINE

> <hERG>
1

$$$$

     RDKit          2D

 24 25  0  0  0  0  0  0  0  0999 V2000
   -3.2476   -4.3750    0.0000 C   0  0  0  0  0  0  0  0  0  0  0  0
   -3.2476   -2.8750    0.0000 C   0  0  0  0  0  0  0  0  0  0  0  0
   -4.5466   -2.1250    0.0000 C   0  0  0  0  0  0  0  0  0  0  0  0
   -4.5466   -0.6250    0.0000 C   0  0  0  0  0  0  0  0  0  0  0  0
   -3.2476    0.1250    0.0000 C   0  0  0  0  0  0  0  0  0  0  0  0
   -3.2476    1.6250    0.0000 O   0  0  0  0  0  0  0  0  0  0  0  0
   -1.9486   -0.6250    0.0000 C   0  0  0  0  0  0  0  0  0  0  0  0
   -0.6495    0.1250    0.0000 C   0  0  0  0  0  0  0  0  0  0  0  0
    0.6495   -0.6250    0.0000 C   0  0  0  0  0  0  0  0  0  0  0  0
    1.9486    0.1250    0.0000 C   0  0  0  0  0  0  0  0  0  0  0  0
    3.2476   -0.6250    0.0000 N   0  0  0  0  0  4  0  0  0  0  0  0
    4.5466    0.1250    0.0000 C   0  0  0  0  0  0  0  0  0  0  0  0
    5.8457   -0.6250    0.0000 C   0  0  0  0  0  0  0  0  0  0  0  0
    4.5466    1.6250    0.0000 C   0  0  0  0  0  0  0  0  0  0  0  0
    3.2476   -2.1250    0.0000 C   0  0  0  0  0  0  0  0  0  0  0  0
    4.5466   -2.8750    0.0000 C   0  0  0  0  0  0  0  0  0  0  0  0
    1.9486   -2.8750    0.0000 C   0  0  0  0  0  0  0  0  0  0  0  0
   -0.6495    1.6250    0.0000 C   0  0  0  0  0  0  0  0  0  0  0  0
    0.6495    2.3750    0.0000 C   0  0  0  0  0  0  0  0  0  0  0  0
    0.6495    3.8750    0.0000 C   0  0  0  0  0  0  0  0  0  0  0  0
   -0.6495    4.6250    0.0000 C   0  0  0  0  0  0  0  0  0  0  0  0
   -1.9486    3.8750    0.0000 C   0  0  0  0  0  0  0  0  0  0  0  0
   -1.9486    2.3750    0.0000 C   0  0  0  0  0  0  0  0  0  0  0  0
   -1.9486   -2.1250    0.0000 C   0  0  0  0  0  0  0  0  0  0  0  0
  1  2  1  0
  2  3  2  0
  3  4  1  0
  4  5  2  0
  5  6  1  0
  5  7  1  0
  7  8  1  0
  8  9  1  1
  9 10  1  0
 10 11  1  0
 11 12  1  0
 12 13  1  0
 12 14  1  0
 11 15  1  0
 15 16  1  0
 15 17  1  0
  8 18  1  0
 18 19  2  0
 19 20  1  0
 20 21  2  0
 21 22  1  0
 22 23  2  0
  7 24  2  0
 24  2  1  0
 23 18  1  0
M  CHG  1  11   1
M  END
> <Identifier>
TOLTERODINE

> <hERG>
1

$$$$

     RDKit          2D

 34 38  0  0  0  0  0  0  0  0999 V2000
    6.3069   -3.4762    0.0000 O   0  0  0  0  0  0  0  0  0  0  0  0
    6.4586   -1.9839    0.0000 C   0  0  0  0  0  0  0  0  0  0  0  0
    7.7551   -1.2295    0.0000 N   0  0  0  0  0  0  0  0  0  0  0  0
    7.4383    0.2367    0.0000 C   0  0  0  0  0  0  0  0  0  0  0  0
    8.3158    1.4532    0.0000 C   0  0  0  0  0  0  0  0  0  0  0  0
    7.7011    2.8215    0.0000 C   0  0  0  0  0  0  0  0  0  0  0  0
    6.2088    2.9732    0.0000 C   0  0  0  0  0  0  0  0  0  0  0  0
    5.3312    1.7567    0.0000 C   0  0  0  0  0  0  0  0  0  0  0  0
    5.9460    0.3884    0.0000 C   0  0  0  0  0  0  0  0  0  0  0  0
    5.3405   -0.9839    0.0000 N   0  0  0  0  0  4  0  0  0  0  0  0
    3.8743   -1.3008    0.0000 C   0  0  0  0  0  0  0  0  0  0  0  0
    2.8669   -0.1895    0.0000 C   0  0  0  0  0  0  0  0  0  0  0  0
    1.4007   -0.5063    0.0000 C   0  0  0  0  0  0  0  0  0  0  0  0
    0.9420   -1.9345    0.0000 N   0  0  0  0  0  4  0  0  0  0  0  0
   -0.5241   -2.2513    0.0000 C   0  0  0  0  0  0  0  0  0  0  0  0
   -1.5316   -1.1400    0.0000 C   0  0  0  0  0  0  0  0  0  0  0  0
   -2.9977   -1.4569    0.0000 C   0  0  0  0  0  0  0  0  0  0  0  0
   -4.0052   -0.3455    0.0000 C   0  0  0  0  0  0  0  0  0  0  0  0
   -5.4714   -0.6624    0.0000 C   0  0  0  0  0  0  0  0  0  0  0  0
   -6.4788    0.4489    0.0000 C   0  0  0  0  0  0  0  0  0  0  0  0
   -7.9450    0.1321    0.0000 C   0  0  0  0  0  0  0  0  0  0  0  0
   -8.4037   -1.2961    0.0000 C   0  0  0  0  0  0  0  0  0  0  0  0
   -9.8698   -1.6129    0.0000 F   0  0  0  0  0  0  0  0  0  0  0  0
   -7.3962   -2.4074    0.0000 C   0  0  0  0  0  0  0  0  0  0  0  0
   -5.9301   -2.0905    0.0000 C   0  0  0  0  0  0  0  0  0  0  0  0
   -3.5465    1.0826    0.0000 C   0  0  0  0  0  0  0  0  0  0  0  0
   -2.0804    1.3994    0.0000 C   0  0  0  0  0  0  0  0  0  0  0  0
   -1.6217    2.8276    0.0000 C   0  0  0  0  0  0  0  0  0  0  0  0
   -2.6292    3.9389    0.0000 C   0  0  0  0  0  0  0  0  0  0  0  0
   -2.1705    5.3670    0.0000 F   0  0  0  0  0  0  0  0  0  0  0  0
   -4.0953    3.6221    0.0000 C   0  0  0  0  0  0  0  0  0  0  0  0
   -4.5540    2.1939    0.0000 C   0  0  0  0  0  0  0  0  0  0  0  0
    1.9495   -3.0458    0.0000 C   0  0  0  0  0  0  0  0  0  0  0  0
    3.4157   -2.7289    0.0000 C   0  0  0  0  0  0  0  0  0  0  0  0
  1  2  2  0
  2  3  1  0
  3  4  2  0
  4  5  1  0
  5  6  2  0
  6  7  1  0
  7  8  2  0
  8  9  1  0
  9 10  2  0
 10 11  1  0
 11 12  1  0
 12 13  1  0
 13 14  1  0
 14 15  1  0
 15 16  1  0
 16 17  1  0
 17 18  1  0
 18 19  1  0
 19 20  2  0
 20 21  1  0
 21 22  2  0
 22 23  1  0
 22 24  1  0
 24 25  2  0
 18 26  1  0
 26 27  2  0
 27 28  1  0
 28 29  2  0
 29 30  1  0
 29 31  1  0
 31 32  2  0
 14 33  1  0
 33 34  1  0
 10  2  1  0
 34 11  1  0
  9  4  1  0
 25 19  1  0
 32 26  1  0
M  CHG  2  10   1  14   1
M  END
> <Identifier>
PIMOZIDE

> <hERG>
1

$$$$

     RDKit          2D

 29 34  0  0  0  0  0  0  0  0999 V2000
   -3.7635   -3.3102    0.0000 C   0  0  0  0  0  0  0  0  0  0  0  0
   -3.6276   -1.8163    0.0000 C   0  0  0  0  0  0  0  0  0  0  0  0
   -2.2659   -1.1872    0.0000 C   0  0  0  0  0  0  0  0  0  0  0  0
   -1.0402   -2.0518    0.0000 C   0  0  0  0  0  0  0  0  0  0  0  0
    0.3214   -1.4226    0.0000 C   0  0  0  0  0  0  0  0  0  0  0  0
    1.6308   -2.1544    0.0000 N   0  0  0  0  0  0  0  0  0  0  0  0
    2.7314   -1.1352    0.0000 C   0  0  0  0  0  0  0  0  0  0  0  0
    4.2252   -1.2712    0.0000 C   0  0  0  0  0  0  0  0  0  0  0  0
    5.0899   -0.0454    0.0000 C   0  0  0  0  0  0  0  0  0  0  0  0
    4.4607    1.3162    0.0000 C   0  0  0  0  0  0  0  0  0  0  0  0
    2.9669    1.4522    0.0000 C   0  0  0  0  0  0  0  0  0  0  0  0
    2.1022    0.2264    0.0000 C   0  0  0  0  0  0  0  0  0  0  0  0
    0.6128    0.0488    0.0000 C   0  0  0  0  0  0  0  0  0  0  0  0
   -0.4064    1.1494    0.0000 C   0  0  0  0  0  0  0  0  0  0  0  0
   -1.8691    0.8171    0.0000 C   0  0  0  0  0  0  0  0  0  0  0  0
   -2.8883    1.9177    0.0000 C   0  0  0  0  0  0  0  0  0  0  0  0
   -3.5175    3.2793    0.0000 C   0  0  0  0  0  0  0  0  0  0  0  0
   -2.4169    4.2985    0.0000 C   0  0  0  0  0  0  0  0  0  0  0  0
   -1.1075    3.5667    0.0000 C   0  0  0  0  0  0  0  0  0  0  0  0
    0.0372    2.5823    0.0000 C   0  0  0  0  0  0  0  0  0  0  0  0
   -1.3988    2.0953    0.0000 N   0  0  0  0  0  0  0  0  0  0  0  0
   -0.3797    0.9947    0.0000 C   0  0  0  0  0  0  0  0  0  0  0  0
   -0.8232   -0.4382    0.0000 C   0  0  0  0  0  0  0  0  0  0  0  0
    0.1960   -1.5388    0.0000 C   0  0  0  0  0  0  0  0  0  0  0  0
    1.6587   -1.2065    0.0000 C   0  0  0  0  0  0  0  0  0  0  0  0
    2.1022    0.2264    0.0000 C   0  0  0  0  0  0  0  0  0  0  0  0
    1.0831    1.3270    0.0000 C   0  0  0  0  0  0  0  0  0  0  0  0
   -1.1762   -3.5456    0.0000 C   0  0  0  0  0  0  0  0  0  0  0  0
   -2.5378   -4.1748    0.0000 C   0  0  0  0  0  0  0  0  0  0  0  0
  1  2  2  0
  2  3  1  0
  3  4  2  0
  4  5  1  0
  5  6  1  0
  6  7  1  0
  7  8  2  0
  8  9  1  0
  9 10  2  0
 10 11  1  0
 11 12  2  0
 12 13  1  0
 13 14  1  0
 14 15  1  0
 16 15  1  6
 16 17  1  0
 17 18  1  0
 19 18  1  6
 19 20  1  0
 19 21  1  0
 21 22  1  0
 22 23  2  0
 23 24  1  0
 24 25  2  0
 25 26  1  0
 26 27  2  0
  4 28  1  0
 28 29  2  0
 29  1  1  0
 13  5  2  0
 20 14  1  0
 27 22  1  0
 12  7  1  0
 21 16  1  0
M  END
> <Identifier>
WOMBAT07

> <hERG>
1

$$$$

     RDKit          2D

 32 34  0  0  0  0  0  0  0  0999 V2000
   -5.3099   -3.8452    0.0000 C   0  0  0  0  0  0  0  0  0  0  0  0
   -4.8894   -2.4054    0.0000 O   0  0  0  0  0  0  0  0  0  0  0  0
   -5.9260   -1.3212    0.0000 C   0  0  0  0  0  0  0  0  0  0  0  0
   -7.3832   -1.6770    0.0000 C   0  0  0  0  0  0  0  0  0  0  0  0
   -8.4199   -0.5928    0.0000 C   0  0  0  0  0  0  0  0  0  0  0  0
   -9.8771   -0.9486    0.0000 N   0  0  0  0  0  0  0  0  0  0  0  0
   -7.9994    0.8470    0.0000 C   0  0  0  0  0  0  0  0  0  0  0  0
   -9.0360    1.9311    0.0000 Cl  0  0  0  0  0  0  0  0  0  0  0  0
   -6.5422    1.2027    0.0000 C   0  0  0  0  0  0  0  0  0  0  0  0
   -5.5055    0.1186    0.0000 C   0  0  0  0  0  0  0  0  0  0  0  0
   -4.0483    0.4743    0.0000 C   0  0  0  0  0  0  0  0  0  0  0  0
   -3.6277    1.9142    0.0000 O   0  0  0  0  0  0  0  0  0  0  0  0
   -3.0116   -0.6098    0.0000 N   0  0  0  0  0  0  0  0  0  0  0  0
   -1.5544   -0.2541    0.0000 C   0  0  0  0  0  0  0  0  0  0  0  0
   -0.5177   -1.3382    0.0000 C   0  0  0  0  0  0  0  0  0  0  0  0
    0.9395   -0.9825    0.0000 C   0  0  0  0  0  0  0  0  0  0  0  0
    1.3600    0.4574    0.0000 N   0  0  0  0  0  0  0  0  0  0  0  0
    2.8172    0.8131    0.0000 C   0  0  0  0  0  0  0  0  0  0  0  0
    3.8539   -0.2710    0.0000 C   0  0  0  0  0  0  0  0  0  0  0  0
    5.3111    0.0847    0.0000 C   0  0  0  0  0  0  0  0  0  0  0  0
    6.3478   -0.9994    0.0000 O   0  0  0  0  0  0  0  0  0  0  0  0
    7.8050   -0.6437    0.0000 C   0  0  0  0  0  0  0  0  0  0  0  0
    8.8417   -1.7278    0.0000 C   0  0  0  0  0  0  0  0  0  0  0  0
   10.2989   -1.3721    0.0000 C   0  0  0  0  0  0  0  0  0  0  0  0
   10.7194    0.0677    0.0000 C   0  0  0  0  0  0  0  0  0  0  0  0
   12.1766    0.4234    0.0000 F   0  0  0  0  0  0  0  0  0  0  0  0
    9.6827    1.1518    0.0000 C   0  0  0  0  0  0  0  0  0  0  0  0
    8.2255    0.7961    0.0000 C   0  0  0  0  0  0  0  0  0  0  0  0
    0.3234    1.5415    0.0000 C   0  0  0  0  0  0  0  0  0  0  0  0
   -1.1339    1.1858    0.0000 C   0  0  0  0  0  0  0  0  0  0  0  0
   -2.1705    2.2699    0.0000 O   0  0  0  0  0  0  0  0  0  0  0  0
   -1.7500    3.7097    0.0000 C   0  0  0  0  0  0  0  0  0  0  0  0
  1  2  1  0
  2  3  1  0
  3  4  2  0
  4  5  1  0
  5  6  1  0
  5  7  2  0
  7  8  1  0
  7  9  1  0
  9 10  2  0
 10 11  1  0
 11 12  2  0
 11 13  1  0
 14 13  1  1
 14 15  1  0
 15 16  1  0
 16 17  1  0
 17 18  1  0
 18 19  1  0
 19 20  1  0
 20 21  1  0
 21 22  1  0
 22 23  2  0
 23 24  1  0
 24 25  2  0
 25 26  1  0
 25 27  1  0
 27 28  2  0
 17 29  1  0
 29 30  1  0
 30 31  1  1
 31 32  1  0
 10  3  1  0
 30 14  1  0
 28 22  1  0
M  END
> <Identifier>
CISAPRIDE HYDRATE

> <hERG>
1

$$$$

     RDKit          2D

 26 28  0  0  0  0  0  0  0  0999 V2000
   -3.2174    2.0203    0.0000 O   0  0  0  0  0  0  0  0  0  0  0  0
   -3.8520    0.6612    0.0000 C   0  0  0  0  0  0  0  0  0  0  0  0
   -2.9922   -0.5680    0.0000 C   0  0  0  0  0  0  0  0  0  0  0  0
   -1.4978   -0.4379    0.0000 C   0  0  0  0  0  0  0  0  0  0  0  0
   -0.6381   -1.6671    0.0000 C   0  0  0  0  0  0  0  0  0  0  0  0
    0.8563   -1.5370    0.0000 N   0  0  0  0  0  4  0  0  0  0  0  0
    1.7161   -2.7662    0.0000 C   0  0  0  0  0  0  0  0  0  0  0  0
    3.2104   -2.6361    0.0000 C   0  0  0  0  0  0  0  0  0  0  0  0
    3.8450   -1.2770    0.0000 C   0  0  0  0  0  0  0  0  0  0  0  0
    5.0733   -2.1379    0.0000 O   0  0  0  0  0  0  0  0  0  0  0  0
    4.9062   -0.2168    0.0000 C   0  0  0  0  0  0  0  0  0  0  0  0
    6.3549   -0.6057    0.0000 C   0  0  0  0  0  0  0  0  0  0  0  0
    7.4160    0.4544    0.0000 C   0  0  0  0  0  0  0  0  0  0  0  0
    7.0285    1.9035    0.0000 C   0  0  0  0  0  0  0  0  0  0  0  0
    8.0897    2.9636    0.0000 Cl  0  0  0  0  0  0  0  0  0  0  0  0
    5.5798    2.2924    0.0000 C   0  0  0  0  0  0  0  0  0  0  0  0
    4.5186    1.2322    0.0000 C   0  0  0  0  0  0  0  0  0  0  0  0
    2.9852   -0.0479    0.0000 C   0  0  0  0  0  0  0  0  0  0  0  0
    1.4909   -0.1779    0.0000 C   0  0  0  0  0  0  0  0  0  0  0  0
   -5.3463    0.5312    0.0000 C   0  0  0  0  0  0  0  0  0  0  0  0
   -6.2061    1.7603    0.0000 C   0  0  0  0  0  0  0  0  0  0  0  0
   -7.7005    1.6303    0.0000 C   0  0  0  0  0  0  0  0  0  0  0  0
   -8.3350    0.2711    0.0000 C   0  0  0  0  0  0  0  0  0  0  0  0
   -9.8294    0.1411    0.0000 F   0  0  0  0  0  0  0  0  0  0  0  0
   -7.4753   -0.9580    0.0000 C   0  0  0  0  0  0  0  0  0  0  0  0
   -5.9809   -0.8280    0.0000 C   0  0  0  0  0  0  0  0  0  0  0  0
  1  2  2  0
  2  3  1  0
  3  4  1  0
  4  5  1  0
  5  6  1  0
  6  7  1  0
  7  8  1  0
  8  9  1  0
  9 10  1  0
  9 11  1  0
 11 12  2  0
 12 13  1  0
 13 14  2  0
 14 15  1  0
 14 16  1  0
 16 17  2  0
  9 18  1  0
 18 19  1  0
  2 20  1  0
 20 21  2  0
 21 22  1  0
 22 23  2  0
 23 24  1  0
 23 25  1  0
 25 26  2  0
 19  6  1  0
 26 20  1  0
 17 11  1  0
M  CHG  1   6   1
M  END
> <Identifier>
HALOPERIDOL

> <hERG>
1

$$$$

     RDKit          2D

 39 41  0  0  0  0  0  0  0  0999 V2000
    9.1191   -4.6755    0.0000 C   0  0  0  0  0  0  0  0  0  0  0  0
    8.8890   -3.1933    0.0000 O   0  0  0  0  0  0  0  0  0  0  0  0
    7.4903   -2.6515    0.0000 C   0  0  0  0  0  0  0  0  0  0  0  0
    6.3217   -3.5919    0.0000 C   0  0  0  0  0  0  0  0  0  0  0  0
    4.9230   -3.0501    0.0000 C   0  0  0  0  0  0  0  0  0  0  0  0
    4.6928   -1.5678    0.0000 C   0  0  0  0  0  0  0  0  0  0  0  0
    3.2941   -1.0260    0.0000 C   0  0  0  0  0  0  0  0  0  0  0  0
    3.0640    0.4562    0.0000 C   0  0  0  0  0  0  0  0  0  0  0  0
    1.6653    0.9981    0.0000 N   0  0  0  0  0  4  0  0  0  0  0  0
    1.4351    2.4803    0.0000 C   0  0  0  0  0  0  0  0  0  0  0  0
    0.4967    0.0577    0.0000 C   0  0  0  0  0  0  0  0  0  0  0  0
   -0.9021    0.5995    0.0000 C   0  0  0  0  0  0  0  0  0  0  0  0
   -2.0707   -0.3409    0.0000 C   0  0  0  0  0  0  0  0  0  0  0  0
   -3.4694    0.2009    0.0000 N   0  0  0  0  0  0  0  0  0  0  0  0
   -3.6995    1.6831    0.0000 C   0  0  0  0  0  0  0  0  0  0  0  0
   -5.0982    2.2249    0.0000 O   0  0  0  0  0  0  0  0  0  0  0  0
   -2.5309    2.6235    0.0000 C   0  0  0  0  0  0  0  0  0  0  0  0
   -1.1322    2.0817    0.0000 C   0  0  0  0  0  0  0  0  0  0  0  0
    0.0364    3.0221    0.0000 C   0  0  0  0  0  0  0  0  0  0  0  0
   -0.1937    4.5044    0.0000 C   0  0  0  0  0  0  0  0  0  0  0  0
    0.9749    5.4448    0.0000 N   0  0  0  0  0  4  0  0  0  0  0  0
    2.3736    4.9030    0.0000 O   0  0  0  0  0  0  0  0  0  0  0  0
    0.7447    6.9270    0.0000 O   0  0  0  0  0  1  0  0  0  0  0  0
   -1.5925    5.0462    0.0000 C   0  0  0  0  0  0  0  0  0  0  0  0
   -2.7610    4.1058    0.0000 C   0  0  0  0  0  0  0  0  0  0  0  0
   -4.6380   -0.7395    0.0000 C   0  0  0  0  0  0  0  0  0  0  0  0
   -6.0367   -0.1977    0.0000 C   0  0  0  0  0  0  0  0  0  0  0  0
   -7.2053   -1.1381    0.0000 C   0  0  0  0  0  0  0  0  0  0  0  0
   -6.9752   -2.6204    0.0000 C   0  0  0  0  0  0  0  0  0  0  0  0
   -8.1437   -3.5608    0.0000 O   0  0  0  0  0  0  0  0  0  0  0  0
   -9.5425   -3.0190    0.0000 C   0  0  0  0  0  0  0  0  0  0  0  0
   -5.5764   -3.1622    0.0000 C   0  0  0  0  0  0  0  0  0  0  0  0
   -5.3463   -4.6445    0.0000 O   0  0  0  0  0  0  0  0  0  0  0  0
   -3.9476   -5.1863    0.0000 C   0  0  0  0  0  0  0  0  0  0  0  0
   -4.4078   -2.2218    0.0000 C   0  0  0  0  0  0  0  0  0  0  0  0
    5.8614   -0.6274    0.0000 C   0  0  0  0  0  0  0  0  0  0  0  0
    7.2602   -1.1692    0.0000 C   0  0  0  0  0  0  0  0  0  0  0  0
    8.4287   -0.2288    0.0000 O   0  0  0  0  0  0  0  0  0  0  0  0
    8.1986    1.2534    0.0000 C   0  0  0  0  0  0  0  0  0  0  0  0
  1  2  1  0
  2  3  1  0
  3  4  2  0
  4  5  1  0
  5  6  2  0
  6  7  1  0
  7  8  1  0
  8  9  1  0
  9 10  1  0
  9 11  1  0
 11 12  1  0
 12 13  1  0
 13 14  1  0
 14 15  1  0
 15 16  2  0
 15 17  1  0
 17 18  2  0
 18 19  1  0
 19 20  2  0
 20 21  1  0
 21 22  2  0
 21 23  1  0
 20 24  1  0
 24 25  2  0
 14 26  1  0
 26 27  2  0
 27 28  1  0
 28 29  2  0
 29 30  1  0
 30 31  1  0
 29 32  1  0
 32 33  1  0
 33 34  1  0
 32 35  2  0
  6 36  1  0
 36 37  2  0
 37 38  1  0
 38 39  1  0
 37  3  1  0
 25 17  1  0
 35 26  1  0
M  CHG  3   9   1  21   1  23  -1
M  END
> <Identifier>
BRL-37872

> <hERG>
1

$$$$

     RDKit          2D

 32 34  0  0  0  0  0  0  0  0999 V2000
   -5.3099   -3.8452    0.0000 C   0  0  0  0  0  0  0  0  0  0  0  0
   -4.8894   -2.4054    0.0000 O   0  0  0  0  0  0  0  0  0  0  0  0
   -5.9260   -1.3212    0.0000 C   0  0  0  0  0  0  0  0  0  0  0  0
   -7.3832   -1.6770    0.0000 C   0  0  0  0  0  0  0  0  0  0  0  0
   -8.4199   -0.5928    0.0000 C   0  0  0  0  0  0  0  0  0  0  0  0
   -9.8771   -0.9486    0.0000 N   0  0  0  0  0  0  0  0  0  0  0  0
   -7.9994    0.8470    0.0000 C   0  0  0  0  0  0  0  0  0  0  0  0
   -9.0360    1.9311    0.0000 Cl  0  0  0  0  0  0  0  0  0  0  0  0
   -6.5422    1.2027    0.0000 C   0  0  0  0  0  0  0  0  0  0  0  0
   -5.5055    0.1186    0.0000 C   0  0  0  0  0  0  0  0  0  0  0  0
   -4.0483    0.4743    0.0000 C   0  0  0  0  0  0  0  0  0  0  0  0
   -3.6277    1.9142    0.0000 O   0  0  0  0  0  0  0  0  0  0  0  0
   -3.0116   -0.6098    0.0000 N   0  0  0  0  0  0  0  0  0  0  0  0
   -1.5544   -0.2541    0.0000 C   0  0  0  0  0  0  0  0  0  0  0  0
   -0.5177   -1.3382    0.0000 C   0  0  0  0  0  0  0  0  0  0  0  0
    0.9395   -0.9825    0.0000 C   0  0  0  0  0  0  0  0  0  0  0  0
    1.3600    0.4574    0.0000 N   0  0  0  0  0  4  0  0  0  0  0  0
    2.8172    0.8131    0.0000 C   0  0  0  0  0  0  0  0  0  0  0  0
    3.8539   -0.2710    0.0000 C   0  0  0  0  0  0  0  0  0  0  0  0
    5.3111    0.0847    0.0000 C   0  0  0  0  0  0  0  0  0  0  0  0
    6.3478   -0.9994    0.0000 O   0  0  0  0  0  0  0  0  0  0  0  0
    7.8050   -0.6437    0.0000 C   0  0  0  0  0  0  0  0  0  0  0  0
    8.8417   -1.7278    0.0000 C   0  0  0  0  0  0  0  0  0  0  0  0
   10.2989   -1.3721    0.0000 C   0  0  0  0  0  0  0  0  0  0  0  0
   10.7194    0.0677    0.0000 C   0  0  0  0  0  0  0  0  0  0  0  0
   12.1766    0.4234    0.0000 F   0  0  0  0  0  0  0  0  0  0  0  0
    9.6827    1.1518    0.0000 C   0  0  0  0  0  0  0  0  0  0  0  0
    8.2255    0.7961    0.0000 C   0  0  0  0  0  0  0  0  0  0  0  0
    0.3234    1.5415    0.0000 C   0  0  0  0  0  0  0  0  0  0  0  0
   -1.1339    1.1858    0.0000 C   0  0  0  0  0  0  0  0  0  0  0  0
   -2.1705    2.2699    0.0000 O   0  0  0  0  0  0  0  0  0  0  0  0
   -1.7500    3.7097    0.0000 C   0  0  0  0  0  0  0  0  0  0  0  0
  1  2  1  0
  2  3  1  0
  3  4  2  0
  4  5  1  0
  5  6  1  0
  5  7  2  0
  7  8  1  0
  7  9  1  0
  9 10  2  0
 10 11  1  0
 11 12  2  0
 11 13  1  0
 14 13  1  1
 14 15  1  0
 15 16  1  0
 16 17  1  0
 17 18  1  0
 18 19  1  0
 19 20  1  0
 20 21  1  0
 21 22  1  0
 22 23  2  0
 23 24  1  0
 24 25  2  0
 25 26  1  0
 25 27  1  0
 27 28  2  0
 17 29  1  0
 29 30  1  0
 30 31  1  1
 31 32  1  0
 10  3  1  0
 30 14  1  0
 28 22  1  0
M  CHG  1  17   1
M  END
> <Identifier>
CISAPRIDE

> <hERG>
1

$$$$

     RDKit          2D

 24 26  0  0  0  0  0  0  0  0999 V2000
   -2.8656    2.0811    0.0000 O   0  0  0  0  0  0  0  0  0  0  0  0
   -3.1357    0.6056    0.0000 C   0  0  0  0  0  0  0  0  0  0  0  0
   -1.9929   -0.3660    0.0000 C   0  0  0  0  0  0  0  0  0  0  0  0
   -0.5800    0.1379    0.0000 N   0  0  0  0  0  0  0  0  0  0  0  0
    0.5628   -0.8337    0.0000 C   0  0  0  0  0  0  0  0  0  0  0  0
    1.9756   -0.3298    0.0000 C   0  0  0  0  0  0  0  0  0  0  0  0
    2.2456    1.1457    0.0000 C   0  0  0  0  0  0  0  0  0  0  0  0
    3.6585    1.6496    0.0000 C   0  0  0  0  0  0  0  0  0  0  0  0
    4.8013    0.6780    0.0000 C   0  0  0  0  0  0  0  0  0  0  0  0
    4.5312   -0.7975    0.0000 C   0  0  0  0  0  0  0  0  0  0  0  0
    5.6740   -1.7691    0.0000 C   0  0  0  0  0  0  0  0  0  0  0  0
    7.0868   -1.2652    0.0000 C   0  0  0  0  0  0  0  0  0  0  0  0
    8.2296   -2.2368    0.0000 F   0  0  0  0  0  0  0  0  0  0  0  0
    7.3569    0.2103    0.0000 C   0  0  0  0  0  0  0  0  0  0  0  0
    6.2141    1.1819    0.0000 C   0  0  0  0  0  0  0  0  0  0  0  0
    1.1028    2.1173    0.0000 C   0  0  0  0  0  0  0  0  0  0  0  0
   -0.3100    1.6134    0.0000 C   0  0  0  0  0  0  0  0  0  0  0  0
   -4.5485    0.1018    0.0000 C   0  0  0  0  0  0  0  0  0  0  0  0
   -5.6913    1.0734    0.0000 C   0  0  0  0  0  0  0  0  0  0  0  0
   -7.1041    0.5695    0.0000 C   0  0  0  0  0  0  0  0  0  0  0  0
   -7.3742   -0.9060    0.0000 C   0  0  0  0  0  0  0  0  0  0  0  0
   -8.7870   -1.4099    0.0000 Cl  0  0  0  0  0  0  0  0  0  0  0  0
   -6.2314   -1.8776    0.0000 C   0  0  0  0  0  0  0  0  0  0  0  0
   -4.8185   -1.3737    0.0000 C   0  0  0  0  0  0  0  0  0  0  0  0
  2  1  1  1
  2  3  1  0
  3  4  1  0
  4  5  1  0
  5  6  1  0
  6  7  1  0
  7  8  1  0
  8  9  1  0
  9 10  2  0
 10 11  1  0
 11 12  2  0
 12 13  1  0
 12 14  1  0
 14 15  2  0
  7 16  1  0
 16 17  1  0
  2 18  1  0
 18 19  2  0
 19 20  1  0
 20 21  2  0
 21 22  1  0
 21 23  1  0
 23 24  2  0
 17  4  1  0
 24 18  1  0
 15  9  1  0
M  END
> <Identifier>
ELIPRODIL

> <hERG>
1

$$$$

     RDKit          2D

 33 37  0  0  0  0  0  0  0  0999 V2000
   -9.8976    1.8827    0.0000 C   0  0  0  0  0  0  0  0  0  0  0  0
   -8.9227    0.7427    0.0000 S   0  0  0  0  0  0  0  0  0  0  0  0
   -7.7827    1.7176    0.0000 O   0  0  0  0  0  0  0  0  0  0  0  0
  -10.0626   -0.2322    0.0000 O   0  0  0  0  0  0  0  0  0  0  0  0
   -7.9477   -0.3973    0.0000 N   0  0  0  0  0  0  0  0  0  0  0  0
   -6.4730   -0.1230    0.0000 C   0  0  0  0  0  0  0  0  0  0  0  0
   -5.9732    1.2913    0.0000 C   0  0  0  0  0  0  0  0  0  0  0  0
   -4.4985    1.5656    0.0000 C   0  0  0  0  0  0  0  0  0  0  0  0
   -3.5236    0.4256    0.0000 C   0  0  0  0  0  0  0  0  0  0  0  0
   -4.0234   -0.9886    0.0000 C   0  0  0  0  0  0  0  0  0  0  0  0
   -5.4981   -1.2629    0.0000 C   0  0  0  0  0  0  0  0  0  0  0  0
   -3.0485   -2.1286    0.0000 C   0  0  0  0  0  0  0  0  0  0  0  0
   -3.5483   -3.5429    0.0000 O   0  0  0  0  0  0  0  0  0  0  0  0
   -1.5738   -1.8543    0.0000 C   0  0  0  0  0  0  0  0  0  0  0  0
   -1.0740   -0.4400    0.0000 C   0  0  0  0  0  0  0  0  0  0  0  0
   -0.0991   -1.5800    0.0000 C   0  0  0  0  0  0  0  0  0  0  0  0
    1.3756   -1.3057    0.0000 C   0  0  0  0  0  0  0  0  0  0  0  0
    1.8754    0.1086    0.0000 N   0  0  0  0  0  4  0  0  0  0  0  0
    3.3501    0.3829    0.0000 C   0  0  0  0  0  0  0  0  0  0  0  0
    3.8499    1.7972    0.0000 C   0  0  0  0  0  0  0  0  0  0  0  0
    5.3246    2.0715    0.0000 C   0  0  0  0  0  0  0  0  0  0  0  0
    6.2995    0.9315    0.0000 C   0  0  0  0  0  0  0  0  0  0  0  0
    7.7742    1.2058    0.0000 C   0  0  0  0  0  0  0  0  0  0  0  0
    8.7491    0.0659    0.0000 C   0  0  0  0  0  0  0  0  0  0  0  0
   10.2238    0.3402    0.0000 C   0  0  0  0  0  0  0  0  0  0  0  0
   11.6985    0.6145    0.0000 N   0  0  0  0  0  0  0  0  0  0  0  0
    8.2493   -1.3484    0.0000 C   0  0  0  0  0  0  0  0  0  0  0  0
    6.7746   -1.6227    0.0000 C   0  0  0  0  0  0  0  0  0  0  0  0
    5.7997   -0.4828    0.0000 C   0  0  0  0  0  0  0  0  0  0  0  0
    4.3250   -0.7571    0.0000 C   0  0  0  0  0  0  0  0  0  0  0  0
    0.9005    1.2486    0.0000 C   0  0  0  0  0  0  0  0  0  0  0  0
   -0.5742    0.9743    0.0000 C   0  0  0  0  0  0  0  0  0  0  0  0
   -2.0489    0.7000    0.0000 O   0  0  0  0  0  0  0  0  0  0  0  0
  1  2  1  0
  2  3  2  0
  2  4  2  0
  2  5  1  0
  5  6  1  0
  6  7  2  0
  7  8  1  0
  8  9  2  0
  9 10  1  0
 10 11  2  0
 10 12  1  0
 12 13  1  1
 12 14  1  0
 14 15  1  0
 15 16  1  0
 16 17  1  0
 17 18  1  0
 19 18  1  6
 19 20  1  0
 20 21  1  0
 21 22  1  0
 22 23  2  0
 23 24  1  0
 24 25  1  0
 25 26  3  0
 24 27  2  0
 27 28  1  0
 28 29  2  0
 29 30  1  0
 18 31  1  0
 31 32  1  0
 15 33  1  0
 11  6  1  0
 32 15  1  0
 33  9  1  0
 30 19  1  0
 29 22  1  0
M  CHG  1  18   1
M  END
> <Identifier>
MK-499

> <hERG>
1

$$$$

     RDKit          2D

 30 34  0  0  0  0  0  0  0  0999 V2000
   -8.1299    2.0203    0.0000 O   0  0  0  0  0  0  0  0  0  0  0  0
   -8.2571    0.5257    0.0000 C   0  0  0  0  0  0  0  0  0  0  0  0
   -9.5410   -0.2499    0.0000 N   0  0  0  0  0  0  0  0  0  0  0  0
   -9.2001   -1.7106    0.0000 C   0  0  0  0  0  0  0  0  0  0  0  0
   -7.7055   -1.8378    0.0000 C   0  0  0  0  0  0  0  0  0  0  0  0
   -7.1227   -0.4556    0.0000 N   0  0  0  0  0  0  0  0  0  0  0  0
   -5.6619   -0.1147    0.0000 C   0  0  0  0  0  0  0  0  0  0  0  0
   -4.6363   -1.2093    0.0000 C   0  0  0  0  0  0  0  0  0  0  0  0
   -3.1756   -0.8684    0.0000 N   0  0  0  0  0  0  0  0  0  0  0  0
   -2.1499   -1.9629    0.0000 C   0  0  0  0  0  0  0  0  0  0  0  0
   -0.6892   -1.6220    0.0000 C   0  0  0  0  0  0  0  0  0  0  0  0
   -0.2541   -0.1865    0.0000 C   0  0  0  0  0  0  0  0  0  0  0  0
    1.2067    0.1544    0.0000 C   0  0  0  0  0  0  0  0  0  0  0  0
    2.3411   -0.8270    0.0000 C   0  0  0  0  0  0  0  0  0  0  0  0
    3.6250   -0.0513    0.0000 N   0  0  0  0  0  0  0  0  0  0  0  0
    5.0071   -0.6341    0.0000 C   0  0  0  0  0  0  0  0  0  0  0  0
    5.1935   -2.1225    0.0000 C   0  0  0  0  0  0  0  0  0  0  0  0
    6.5757   -2.7053    0.0000 C   0  0  0  0  0  0  0  0  0  0  0  0
    7.7715   -1.7997    0.0000 C   0  0  0  0  0  0  0  0  0  0  0  0
    9.1536   -2.3825    0.0000 F   0  0  0  0  0  0  0  0  0  0  0  0
    7.5851   -0.3113    0.0000 C   0  0  0  0  0  0  0  0  0  0  0  0
    6.2029    0.2715    0.0000 C   0  0  0  0  0  0  0  0  0  0  0  0
    3.2841    1.4094    0.0000 C   0  0  0  0  0  0  0  0  0  0  0  0
    4.1415    2.6402    0.0000 C   0  0  0  0  0  0  0  0  0  0  0  0
    3.5043    3.9981    0.0000 C   0  0  0  0  0  0  0  0  0  0  0  0
    2.0097    4.1253    0.0000 C   0  0  0  0  0  0  0  0  0  0  0  0
    1.1523    2.8945    0.0000 C   0  0  0  0  0  0  0  0  0  0  0  0
    1.7895    1.5366    0.0000 C   0  0  0  0  0  0  0  0  0  0  0  0
   -1.2797    0.9081    0.0000 C   0  0  0  0  0  0  0  0  0  0  0  0
   -2.7404    0.5671    0.0000 C   0  0  0  0  0  0  0  0  0  0  0  0
  1  2  2  0
  2  3  1  0
  3  4  1  0
  4  5  1  0
  5  6  1  0
  6  7  1  0
  7  8  1  0
  8  9  1  0
  9 10  1  0
 10 11  1  0
 11 12  1  0
 13 12  1  1
 13 14  1  0
 14 15  1  0
 15 16  1  0
 16 17  2  0
 17 18  1  0
 18 19  2  0
 19 20  1  0
 19 21  1  0
 21 22  2  0
 15 23  1  0
 23 24  2  0
 24 25  1  0
 25 26  2  0
 26 27  1  0
 27 28  2  0
 12 29  1  0
 29 30  1  0
  6  2  1  0
 30  9  1  0
 28 13  1  0
 22 16  1  0
 28 23  1  0
M  END
> <Identifier>
BMCL20031829_13

> <hERG>
1

$$$$

     RDKit          2D

 39 43  0  0  0  0  0  0  0  0999 V2000
   -4.9885   -5.8085    0.0000 N   0  0  0  0  0  0  0  0  0  0  0  0
   -5.1789   -4.3206    0.0000 C   0  0  0  0  0  0  0  0  0  0  0  0
   -5.3693   -2.8327    0.0000 C   0  0  0  0  0  0  0  0  0  0  0  0
   -6.7531   -2.2537    0.0000 C   0  0  0  0  0  0  0  0  0  0  0  0
   -6.9435   -0.7658    0.0000 C   0  0  0  0  0  0  0  0  0  0  0  0
   -5.7502    0.1430    0.0000 C   0  0  0  0  0  0  0  0  0  0  0  0
   -5.9406    1.6309    0.0000 C   0  0  0  0  0  0  0  0  0  0  0  0
   -4.7472    2.5397    0.0000 N   0  0  0  0  0  0  0  0  0  0  0  0
   -4.7811    4.0393    0.0000 C   0  0  0  0  0  0  0  0  0  0  0  0
   -3.3653    4.5349    0.0000 N   0  0  0  0  0  0  0  0  0  0  0  0
   -2.4565    3.3416    0.0000 C   0  0  0  0  0  0  0  0  0  0  0  0
   -3.3106    2.1085    0.0000 C   0  0  0  0  0  0  0  0  0  0  0  0
   -2.8150    0.6927    0.0000 C   0  0  0  0  0  0  0  0  0  0  0  0
   -1.3411    0.4140    0.0000 N   0  0  0  0  0  4  0  0  0  0  0  0
   -0.8455   -1.0017    0.0000 C   0  0  0  0  0  0  0  0  0  0  0  0
    0.6284   -1.2804    0.0000 C   0  0  0  0  0  0  0  0  0  0  0  0
    1.1240   -2.6962    0.0000 C   0  0  0  0  0  0  0  0  0  0  0  0
    2.5979   -2.9749    0.0000 C   0  0  0  0  0  0  0  0  0  0  0  0
    3.0935   -4.3906    0.0000 C   0  0  0  0  0  0  0  0  0  0  0  0
    4.5673   -4.6693    0.0000 C   0  0  0  0  0  0  0  0  0  0  0  0
    5.5456   -3.5322    0.0000 C   0  0  0  0  0  0  0  0  0  0  0  0
    5.0500   -2.1165    0.0000 C   0  0  0  0  0  0  0  0  0  0  0  0
    3.5762   -1.8378    0.0000 C   0  0  0  0  0  0  0  0  0  0  0  0
   -0.3628    1.5511    0.0000 C   0  0  0  0  0  0  0  0  0  0  0  0
   -0.7077    3.0109    0.0000 C   0  0  0  0  0  0  0  0  0  0  0  0
    0.5741    3.7900    0.0000 C   0  0  0  0  0  0  0  0  0  0  0  0
    1.7112    2.8118    0.0000 N   0  0  0  0  0  0  0  0  0  0  0  0
    3.1710    3.1567    0.0000 C   0  0  0  0  0  0  0  0  0  0  0  0
    4.1996    2.0649    0.0000 C   0  0  0  0  0  0  0  0  0  0  0  0
    3.7684    0.6282    0.0000 C   0  0  0  0  0  0  0  0  0  0  0  0
    4.7969   -0.4636    0.0000 C   0  0  0  0  0  0  0  0  0  0  0  0
    6.2568   -0.1187    0.0000 C   0  0  0  0  0  0  0  0  0  0  0  0
    6.6880    1.3180    0.0000 C   0  0  0  0  0  0  0  0  0  0  0  0
    8.1478    1.6629    0.0000 Cl  0  0  0  0  0  0  0  0  0  0  0  0
    5.6594    2.4098    0.0000 C   0  0  0  0  0  0  0  0  0  0  0  0
    1.1321    1.4280    0.0000 C   0  0  0  0  0  0  0  0  0  0  0  0
    1.9113    0.1462    0.0000 O   0  0  0  0  0  0  0  0  0  0  0  0
   -4.3664   -0.4360    0.0000 C   0  0  0  0  0  0  0  0  0  0  0  0
   -4.1760   -1.9239    0.0000 C   0  0  0  0  0  0  0  0  0  0  0  0
  1  2  3  0
  2  3  1  0
  3  4  2  0
  4  5  1  0
  5  6  2  0
  6  7  1  0
  7  8  1  0
  8  9  1  0
  9 10  2  0
 10 11  1  0
 11 12  2  0
 12 13  1  0
 13 14  1  0
 14 15  1  0
 15 16  1  0
 16 17  1  0
 17 18  1  0
 18 19  2  0
 19 20  1  0
 20 21  2  0
 21 22  1  0
 22 23  2  0
 24 14  1  6
 24 25  1  0
 25 26  1  0
 26 27  1  0
 27 28  1  0
 28 29  1  0
 29 30  2  0
 30 31  1  0
 31 32  2  0
 32 33  1  0
 33 34  1  0
 33 35  2  0
 27 36  1  0
 36 37  2  0
  6 38  1  0
 38 39  2  0
 39  3  1  0
 12  8  1  0
 23 18  1  0
 36 24  1  0
 35 29  1  0
M  CHG  1  14   1
M  END
> <Identifier>
WOMBAT59

> <hERG>
1

$$$$

     RDKit          2D

 26 26  0  0  0  0  0  0  0  0999 V2000
  -10.4952   -3.5817    0.0000 C   0  0  0  0  0  0  0  0  0  0  0  0
   -9.8430   -2.2309    0.0000 C   0  0  0  0  0  0  0  0  0  0  0  0
   -8.3471   -2.1203    0.0000 C   0  0  0  0  0  0  0  0  0  0  0  0
   -7.6950   -0.7695    0.0000 C   0  0  0  0  0  0  0  0  0  0  0  0
   -6.1991   -0.6588    0.0000 C   0  0  0  0  0  0  0  0  0  0  0  0
   -5.5469    0.6920    0.0000 C   0  0  0  0  0  0  0  0  0  0  0  0
   -4.0510    0.8026    0.0000 C   0  0  0  0  0  0  0  0  0  0  0  0
   -3.3988    2.1534    0.0000 N   0  0  0  0  0  4  0  0  0  0  0  0
   -4.2426    3.3936    0.0000 C   0  0  0  0  0  0  0  0  0  0  0  0
   -5.7385    3.2830    0.0000 C   0  0  0  0  0  0  0  0  0  0  0  0
   -1.9029    2.2640    0.0000 C   0  0  0  0  0  0  0  0  0  0  0  0
   -1.0592    1.0239    0.0000 C   0  0  0  0  0  0  0  0  0  0  0  0
    0.4367    1.1345    0.0000 C   0  0  0  0  0  0  0  0  0  0  0  0
    1.2805   -0.1057    0.0000 C   0  0  0  0  0  0  0  0  0  0  0  0
    0.6284   -1.4565    0.0000 O   0  0  0  0  0  0  0  0  0  0  0  0
    2.7764    0.0049    0.0000 C   0  0  0  0  0  0  0  0  0  0  0  0
    3.4286    1.3557    0.0000 C   0  0  0  0  0  0  0  0  0  0  0  0
    4.9245    1.4664    0.0000 C   0  0  0  0  0  0  0  0  0  0  0  0
    5.7683    0.2262    0.0000 C   0  0  0  0  0  0  0  0  0  0  0  0
    7.2642    0.3368    0.0000 N   0  0  0  0  0  0  0  0  0  0  0  0
    8.1079   -0.9034    0.0000 S   0  0  0  0  0  0  0  0  0  0  0  0
    8.9517   -2.1436    0.0000 C   0  0  0  0  0  0  0  0  0  0  0  0
    6.8678   -1.7471    0.0000 O   0  0  0  0  0  0  0  0  0  0  0  0
    9.3481   -0.0596    0.0000 O   0  0  0  0  0  0  0  0  0  0  0  0
    5.1161   -1.1246    0.0000 C   0  0  0  0  0  0  0  0  0  0  0  0
    3.6202   -1.2353    0.0000 C   0  0  0  0  0  0  0  0  0  0  0  0
  1  2  1  0
  2  3  1  0
  3  4  1  0
  4  5  1  0
  5  6  1  0
  6  7  1  0
  7  8  1  0
  8  9  1  0
  9 10  1  0
  8 11  1  0
 11 12  1  0
 12 13  1  0
 13 14  1  0
 14 15  1  6
 14 16  1  0
 16 17  2  0
 17 18  1  0
 18 19  2  0
 19 20  1  0
 20 21  1  0
 21 22  1  0
 21 23  2  0
 21 24  2  0
 19 25  1  0
 25 26  2  0
 26 16  1  0
M  CHG  1   8   1
M  END
> <Identifier>
IBUTILIDE

> <hERG>
1

$$$$

     RDKit          2D

 24 27  0  0  0  0  0  0  0  0999 V2000
    3.8112    4.5553    0.0000 F   0  0  0  0  0  0  0  0  0  0  0  0
    2.7273    3.5183    0.0000 C   0  0  0  0  0  0  0  0  0  0  0  0
    3.0834    2.0612    0.0000 C   0  0  0  0  0  0  0  0  0  0  0  0
    1.9995    1.0243    0.0000 C   0  0  0  0  0  0  0  0  0  0  0  0
    0.5596    1.4445    0.0000 C   0  0  0  0  0  0  0  0  0  0  0  0
   -0.5243    0.4076    0.0000 C   0  0  0  0  0  0  0  0  0  0  0  0
   -0.1682   -1.0496    0.0000 N   0  0  0  0  0  0  0  0  0  0  0  0
   -1.1378   -2.1941    0.0000 C   0  0  0  0  0  0  0  0  0  0  0  0
   -2.6336   -2.0825    0.0000 N   0  0  0  0  0  0  0  0  0  0  0  0
   -3.2848   -0.7312    0.0000 C   0  0  0  0  0  0  0  0  0  0  0  0
   -2.4402    0.5084    0.0000 C   0  0  0  0  0  0  0  0  0  0  0  0
   -3.0915    1.8597    0.0000 C   0  0  0  0  0  0  0  0  0  0  0  0
   -4.5873    1.9713    0.0000 N   0  0  0  0  0  4  0  0  0  0  0  0
   -5.4319    0.7317    0.0000 C   0  0  0  0  0  0  0  0  0  0  0  0
   -4.7807   -0.6196    0.0000 C   0  0  0  0  0  0  0  0  0  0  0  0
   -0.3489   -3.4699    0.0000 N   0  0  0  0  0  0  0  0  0  0  0  0
    1.1083   -3.1138    0.0000 C   0  0  0  0  0  0  0  0  0  0  0  0
    2.3479   -3.9584    0.0000 C   0  0  0  0  0  0  0  0  0  0  0  0
    3.6991   -3.3072    0.0000 C   0  0  0  0  0  0  0  0  0  0  0  0
    3.8108   -1.8113    0.0000 C   0  0  0  0  0  0  0  0  0  0  0  0
    2.5712   -0.9667    0.0000 C   0  0  0  0  0  0  0  0  0  0  0  0
    1.2199   -1.6180    0.0000 C   0  0  0  0  0  0  0  0  0  0  0  0
    0.2035    2.9016    0.0000 C   0  0  0  0  0  0  0  0  0  0  0  0
    1.2874    3.9385    0.0000 C   0  0  0  0  0  0  0  0  0  0  0  0
  1  2  1  0
  2  3  2  0
  3  4  1  0
  4  5  2  0
  5  6  1  0
  6  7  1  0
  7  8  1  0
  8  9  1  0
  9 10  1  0
 10 11  1  0
 11 12  1  0
 12 13  1  0
 13 14  1  0
 14 15  1  0
  8 16  2  0
 16 17  1  0
 17 18  2  0
 18 19  1  0
 19 20  2  0
 20 21  1  0
 21 22  2  0
  5 23  1  0
 23 24  2  0
 24  2  1  0
 22  7  1  0
 15 10  1  0
 22 17  1  0
M  CHG  1  13   1
M  END
> <Identifier>
NORASTEMIZOLE

> <hERG>
1

$$$$

     RDKit          2D

 40 44  0  0  0  0  0  0  0  0999 V2000
    8.8220   -2.6194    0.0000 Cl  0  0  0  0  0  0  0  0  0  0  0  0
    7.3954   -2.1558    0.0000 C   0  0  0  0  0  0  0  0  0  0  0  0
    6.2807   -3.1595    0.0000 C   0  0  0  0  0  0  0  0  0  0  0  0
    4.8541   -2.6960    0.0000 C   0  0  0  0  0  0  0  0  0  0  0  0
    4.5423   -1.2287    0.0000 C   0  0  0  0  0  0  0  0  0  0  0  0
    3.1157   -0.7652    0.0000 C   0  0  0  0  0  0  0  0  0  0  0  0
    2.8039    0.7021    0.0000 C   0  0  0  0  0  0  0  0  0  0  0  0
    3.9186    1.7057    0.0000 C   0  0  0  0  0  0  0  0  0  0  0  0
    3.6068    3.1730    0.0000 C   0  0  0  0  0  0  0  0  0  0  0  0
    2.1802    3.6365    0.0000 C   0  0  0  0  0  0  0  0  0  0  0  0
    1.8684    5.1038    0.0000 Cl  0  0  0  0  0  0  0  0  0  0  0  0
    1.0655    2.6329    0.0000 C   0  0  0  0  0  0  0  0  0  0  0  0
    1.3773    1.1656    0.0000 C   0  0  0  0  0  0  0  0  0  0  0  0
    2.0010   -1.7688    0.0000 N   0  0  0  0  0  0  0  0  0  0  0  0
    2.1577   -3.2606    0.0000 C   0  0  0  0  0  0  0  0  0  0  0  0
    0.7874   -3.8707    0.0000 C   0  0  0  0  0  0  0  0  0  0  0  0
   -0.2163   -2.7559    0.0000 N   0  0  0  0  0  4  0  0  0  0  0  0
   -1.7080   -2.9127    0.0000 C   0  0  0  0  0  0  0  0  0  0  0  0
   -2.5897   -1.6991    0.0000 C   0  0  0  0  0  0  0  0  0  0  0  0
   -1.9796   -0.3288    0.0000 O   0  0  0  0  0  0  0  0  0  0  0  0
   -2.8612    0.8847    0.0000 C   0  0  0  0  0  0  0  0  0  0  0  0
   -2.2511    2.2550    0.0000 C   0  0  0  0  0  0  0  0  0  0  0  0
   -0.7593    2.4118    0.0000 C   0  0  0  0  0  0  0  0  0  0  0  0
   -0.1491    3.7821    0.0000 C   0  0  0  0  0  0  0  0  0  0  0  0
   -1.0308    4.9956    0.0000 C   0  0  0  0  0  0  0  0  0  0  0  0
   -0.4206    6.3659    0.0000 Cl  0  0  0  0  0  0  0  0  0  0  0  0
   -2.5226    4.8389    0.0000 C   0  0  0  0  0  0  0  0  0  0  0  0
   -3.1327    3.4686    0.0000 C   0  0  0  0  0  0  0  0  0  0  0  0
   -4.6245    3.3118    0.0000 Cl  0  0  0  0  0  0  0  0  0  0  0  0
   -4.0815   -1.8559    0.0000 C   0  0  0  0  0  0  0  0  0  0  0  0
   -4.9631   -0.6424    0.0000 C   0  0  0  0  0  0  0  0  0  0  0  0
   -6.4549   -0.7991    0.0000 C   0  0  0  0  0  0  0  0  0  0  0  0
   -7.0651   -2.1694    0.0000 C   0  0  0  0  0  0  0  0  0  0  0  0
   -8.5568   -2.3262    0.0000 Cl  0  0  0  0  0  0  0  0  0  0  0  0
   -6.1834   -3.3830    0.0000 C   0  0  0  0  0  0  0  0  0  0  0  0
   -4.6916   -3.2262    0.0000 C   0  0  0  0  0  0  0  0  0  0  0  0
   -3.8100   -4.4398    0.0000 Cl  0  0  0  0  0  0  0  0  0  0  0  0
    0.5338   -1.4569    0.0000 C   0  0  0  0  0  0  0  0  0  0  0  0
    5.6570   -0.2251    0.0000 C   0  0  0  0  0  0  0  0  0  0  0  0
    7.0836   -0.6886    0.0000 C   0  0  0  0  0  0  0  0  0  0  0  0
  1  2  1  0
  2  3  2  0
  3  4  1  0
  4  5  2  0
  5  6  1  0
  6  7  1  0
  7  8  2  0
  8  9  1  0
  9 10  2  0
 10 11  1  0
 10 12  1  0
 12 13  2  0
  6 14  1  0
 14 15  1  0
 15 16  2  0
 16 17  1  0
 17 18  1  0
 19 18  1  1
 19 20  1  0
 20 21  1  0
 21 22  1  0
 22 23  2  0
 23 24  1  0
 24 25  2  0
 25 26  1  0
 25 27  1  0
 27 28  2  0
 28 29  1  0
 19 30  1  0
 30 31  2  0
 31 32  1  0
 32 33  2  0
 33 34  1  0
 33 35  1  0
 35 36  2  0
 36 37  1  0
 17 38  2  0
  5 39  1  0
 39 40  2  0
 40  2  1  0
 13  7  1  0
 38 14  1  0
 28 22  1  0
 36 30  1  0
M  CHG  1  17   1
M  END
> <Identifier>
BEKM-1

> <hERG>
1

$$$$

     RDKit          2D

 33 37  0  0  0  0  0  0  0  0999 V2000
   -9.6966    1.2145    0.0000 O   0  0  0  0  0  0  0  0  0  0  0  0
   -8.2503    0.8170    0.0000 C   0  0  0  0  0  0  0  0  0  0  0  0
   -7.1828    1.8708    0.0000 C   0  0  0  0  0  0  0  0  0  0  0  0
   -5.7365    1.4732    0.0000 C   0  0  0  0  0  0  0  0  0  0  0  0
   -5.3576    0.0219    0.0000 C   0  0  0  0  0  0  0  0  0  0  0  0
   -3.9112   -0.3757    0.0000 C   0  0  0  0  0  0  0  0  0  0  0  0
   -3.5323   -1.8270    0.0000 C   0  0  0  0  0  0  0  0  0  0  0  0
   -2.0860   -2.2246    0.0000 N   0  0  0  0  0  4  0  0  0  0  0  0
   -1.7071   -3.6759    0.0000 C   0  0  0  0  0  0  0  0  0  0  0  0
   -0.2607   -4.0735    0.0000 C   0  0  0  0  0  0  0  0  0  0  0  0
    0.8068   -3.0197    0.0000 C   0  0  0  0  0  0  0  0  0  0  0  0
    2.2531   -3.4172    0.0000 N   0  0  0  0  0  0  0  0  0  0  0  0
    3.3206   -2.3634    0.0000 C   0  0  0  0  0  0  0  0  0  0  0  0
    4.8006   -2.6076    0.0000 N   0  0  0  0  0  0  0  0  0  0  0  0
    5.4902   -1.2755    0.0000 C   0  0  0  0  0  0  0  0  0  0  0  0
    6.9415   -0.8966    0.0000 C   0  0  0  0  0  0  0  0  0  0  0  0
    7.3391    0.5498    0.0000 C   0  0  0  0  0  0  0  0  0  0  0  0
    6.2853    1.6172    0.0000 C   0  0  0  0  0  0  0  0  0  0  0  0
    4.8339    1.2383    0.0000 C   0  0  0  0  0  0  0  0  0  0  0  0
    4.4363   -0.2080    0.0000 C   0  0  0  0  0  0  0  0  0  0  0  0
    3.0955   -0.8804    0.0000 N   0  0  0  0  0  0  0  0  0  0  0  0
    1.7634   -0.1908    0.0000 C   0  0  0  0  0  0  0  0  0  0  0  0
    1.6945    1.3076    0.0000 C   0  0  0  0  0  0  0  0  0  0  0  0
    2.9578    2.1164    0.0000 C   0  0  0  0  0  0  0  0  0  0  0  0
    2.8889    3.6149    0.0000 C   0  0  0  0  0  0  0  0  0  0  0  0
    1.5568    4.3044    0.0000 C   0  0  0  0  0  0  0  0  0  0  0  0
    1.4879    5.8028    0.0000 F   0  0  0  0  0  0  0  0  0  0  0  0
    0.2936    3.4956    0.0000 C   0  0  0  0  0  0  0  0  0  0  0  0
    0.3624    1.9972    0.0000 C   0  0  0  0  0  0  0  0  0  0  0  0
    0.4279   -1.5683    0.0000 C   0  0  0  0  0  0  0  0  0  0  0  0
   -1.0185   -1.1708    0.0000 C   0  0  0  0  0  0  0  0  0  0  0  0
   -6.4250   -1.0319    0.0000 C   0  0  0  0  0  0  0  0  0  0  0  0
   -7.8714   -0.6344    0.0000 C   0  0  0  0  0  0  0  0  0  0  0  0
  1  2  1  0
  2  3  2  0
  3  4  1  0
  4  5  2  0
  5  6  1  0
  6  7  1  0
  7  8  1  0
  8  9  1  0
  9 10  1  0
 10 11  1  0
 11 12  1  0
 12 13  1  0
 13 14  2  0
 14 15  1  0
 15 16  2  0
 16 17  1  0
 17 18  2  0
 18 19  1  0
 19 20  2  0
 20 21  1  0
 21 22  1  0
 22 23  1  0
 23 24  2  0
 24 25  1  0
 25 26  2  0
 26 27  1  0
 26 28  1  0
 28 29  2  0
 11 30  1  0
 30 31  1  0
  5 32  1  0
 32 33  2  0
 33  2  1  0
 31  8  1  0
 21 13  1  0
 29 23  1  0
 20 15  1  0
M  CHG  1   8   1
M  END
> <Identifier>
DESMETHYLASTEMIZOLE

> <hERG>
1

$$$$

     RDKit          2D

 33 35  0  0  0  0  0  0  0  0999 V2000
   -9.7627    1.8061    0.0000 C   0  0  0  0  0  0  0  0  0  0  0  0
   -8.3708    2.3651    0.0000 C   0  0  0  0  0  0  0  0  0  0  0  0
   -7.1907    1.4392    0.0000 C   0  0  0  0  0  0  0  0  0  0  0  0
   -5.7987    1.9982    0.0000 C   0  0  0  0  0  0  0  0  0  0  0  0
   -4.6186    1.0722    0.0000 N   0  0  0  0  0  4  0  0  0  0  0  0
   -4.8305   -0.4128    0.0000 C   0  0  0  0  0  0  0  0  0  0  0  0
   -6.2224   -0.9718    0.0000 C   0  0  0  0  0  0  0  0  0  0  0  0
   -6.4343   -2.4567    0.0000 C   0  0  0  0  0  0  0  0  0  0  0  0
   -7.8263   -3.0157    0.0000 C   0  0  0  0  0  0  0  0  0  0  0  0
   -3.2267    1.6312    0.0000 C   0  0  0  0  0  0  0  0  0  0  0  0
   -2.0466    0.7052    0.0000 C   0  0  0  0  0  0  0  0  0  0  0  0
   -0.6547    1.2642    0.0000 C   0  0  0  0  0  0  0  0  0  0  0  0
   -0.4428    2.7492    0.0000 O   0  0  0  0  0  0  0  0  0  0  0  0
    0.5254    0.3383    0.0000 C   0  0  0  0  0  0  0  0  0  0  0  0
    0.3136   -1.1467    0.0000 C   0  0  0  0  0  0  0  0  0  0  0  0
    1.4936   -2.0727    0.0000 C   0  0  0  0  0  0  0  0  0  0  0  0
    1.2818   -3.5576    0.0000 C   0  0  0  0  0  0  0  0  0  0  0  0
   -0.1102   -4.1166    0.0000 Cl  0  0  0  0  0  0  0  0  0  0  0  0
    2.4619   -4.4836    0.0000 C   0  0  0  0  0  0  0  0  0  0  0  0
    3.8538   -3.9246    0.0000 C   0  0  0  0  0  0  0  0  0  0  0  0
    5.0339   -4.8505    0.0000 Cl  0  0  0  0  0  0  0  0  0  0  0  0
    4.0657   -2.4396    0.0000 C   0  0  0  0  0  0  0  0  0  0  0  0
    2.8856   -1.5137    0.0000 C   0  0  0  0  0  0  0  0  0  0  0  0
    3.0975   -0.0287    0.0000 C   0  0  0  0  0  0  0  0  0  0  0  0
    4.4894    0.5303    0.0000 C   0  0  0  0  0  0  0  0  0  0  0  0
    4.7013    2.0153    0.0000 C   0  0  0  0  0  0  0  0  0  0  0  0
    6.0932    2.5743    0.0000 C   0  0  0  0  0  0  0  0  0  0  0  0
    7.4852    3.1333    0.0000 F   0  0  0  0  0  0  0  0  0  0  0  0
    6.6522    1.1823    0.0000 F   0  0  0  0  0  0  0  0  0  0  0  0
    5.5342    3.9662    0.0000 F   0  0  0  0  0  0  0  0  0  0  0  0
    3.5212    2.9412    0.0000 C   0  0  0  0  0  0  0  0  0  0  0  0
    2.1292    2.3822    0.0000 C   0  0  0  0  0  0  0  0  0  0  0  0
    1.9174    0.8973    0.0000 C   0  0  0  0  0  0  0  0  0  0  0  0
  1  2  1  0
  2  3  1  0
  3  4  1  0
  4  5  1  0
  5  6  1  0
  6  7  1  0
  7  8  1  0
  8  9  1  0
  5 10  1  0
 10 11  1  0
 11 12  1  0
 12 13  1  1
 12 14  1  0
 14 15  2  0
 15 16  1  0
 16 17  2  0
 17 18  1  0
 17 19  1  0
 19 20  2  0
 20 21  1  0
 20 22  1  0
 22 23  2  0
 23 24  1  0
 24 25  2  0
 25 26  1  0
 26 27  1  0
 27 28  1  0
 27 29  1  0
 27 30  1  0
 26 31  2  0
 31 32  1  0
 32 33  2  0
 33 14  1  0
 23 16  1  0
 33 24  1  0
M  CHG  1   5   1
M  END
> <Identifier>
HALOFANTRINE

> <hERG>
1

$$$$

     RDKit          2D

 28 31  0  0  0  0  0  0  0  0999 V2000
   -4.4231    2.1242    0.0000 O   0  0  0  0  0  0  0  0  0  0  0  0
   -4.7969    0.6715    0.0000 C   0  0  0  0  0  0  0  0  0  0  0  0
   -3.7257   -0.3785    0.0000 C   0  0  0  0  0  0  0  0  0  0  0  0
   -2.2808    0.0241    0.0000 C   0  0  0  0  0  0  0  0  0  0  0  0
   -1.2096   -1.0259    0.0000 C   0  0  0  0  0  0  0  0  0  0  0  0
    0.2354   -0.6233    0.0000 N   0  0  0  0  0  4  0  0  0  0  0  0
    1.3065   -1.6733    0.0000 C   0  0  0  0  0  0  0  0  0  0  0  0
    2.7515   -1.2707    0.0000 C   0  0  0  0  0  0  0  0  0  0  0  0
    3.1253    0.1820    0.0000 C   0  0  0  0  0  0  0  0  0  0  0  0
    4.5702    0.5846    0.0000 N   0  0  0  0  0  4  0  0  0  0  0  0
    5.7453   -0.3477    0.0000 C   0  0  0  0  0  0  0  0  0  0  0  0
    5.8387   -1.8448    0.0000 C   0  0  0  0  0  0  0  0  0  0  0  0
    7.1819   -2.5124    0.0000 C   0  0  0  0  0  0  0  0  0  0  0  0
    8.4317   -1.6830    0.0000 C   0  0  0  0  0  0  0  0  0  0  0  0
    8.3383   -0.1859    0.0000 C   0  0  0  0  0  0  0  0  0  0  0  0
    6.9951    0.4818    0.0000 C   0  0  0  0  0  0  0  0  0  0  0  0
    6.5924    1.9267    0.0000 N   0  0  0  0  0  0  0  0  0  0  0  0
    5.0938    1.9903    0.0000 C   0  0  0  0  0  0  0  0  0  0  0  0
    4.2643    3.2401    0.0000 O   0  0  0  0  0  0  0  0  0  0  0  0
    2.0541    1.2320    0.0000 C   0  0  0  0  0  0  0  0  0  0  0  0
    0.6091    0.8294    0.0000 C   0  0  0  0  0  0  0  0  0  0  0  0
   -6.2418    0.2689    0.0000 C   0  0  0  0  0  0  0  0  0  0  0  0
   -7.3130    1.3189    0.0000 C   0  0  0  0  0  0  0  0  0  0  0  0
   -8.7580    0.9163    0.0000 C   0  0  0  0  0  0  0  0  0  0  0  0
   -9.1317   -0.5364    0.0000 C   0  0  0  0  0  0  0  0  0  0  0  0
  -10.5767   -0.9390    0.0000 F   0  0  0  0  0  0  0  0  0  0  0  0
   -8.0606   -1.5864    0.0000 C   0  0  0  0  0  0  0  0  0  0  0  0
   -6.6156   -1.1838    0.0000 C   0  0  0  0  0  0  0  0  0  0  0  0
  1  2  2  0
  2  3  1  0
  3  4  1  0
  4  5  1  0
  5  6  1  0
  6  7  1  0
  7  8  1  0
  8  9  2  0
  9 10  1  0
 10 11  2  0
 11 12  1  0
 12 13  2  0
 13 14  1  0
 14 15  2  0
 15 16  1  0
 16 17  2  0
 17 18  1  0
 18 19  2  0
  9 20  1  0
 20 21  1  0
  2 22  1  0
 22 23  2  0
 23 24  1  0
 24 25  2  0
 25 26  1  0
 25 27  1  0
 27 28  2  0
 21  6  1  0
 28 22  1  0
 18 10  1  0
 16 11  1  0
M  CHG  2   6   1  10   1
M  END
> <Identifier>
DROPERIDOL

> <hERG>
1

$$$$

     RDKit          2D

 26 30  0  0  0  0  0  0  0  0999 V2000
    1.6516   -6.2280    0.0000 C   0  0  0  0  0  0  0  0  0  0  0  0
    2.0506   -4.7821    0.0000 C   0  0  0  0  0  0  0  0  0  0  0  0
    0.9978   -3.7136    0.0000 O   0  0  0  0  0  0  0  0  0  0  0  0
    1.3968   -2.2676    0.0000 C   0  0  0  0  0  0  0  0  0  0  0  0
    2.8485   -1.8901    0.0000 O   0  0  0  0  0  0  0  0  0  0  0  0
    0.3440   -1.1991    0.0000 C   0  0  0  0  0  0  0  0  0  0  0  0
   -1.1077   -1.5766    0.0000 C   0  0  0  0  0  0  0  0  0  0  0  0
   -2.1604   -0.5081    0.0000 C   0  0  0  0  0  0  0  0  0  0  0  0
   -2.5594   -1.9540    0.0000 C   0  0  0  0  0  0  0  0  0  0  0  0
   -4.0111   -2.3315    0.0000 C   0  0  0  0  0  0  0  0  0  0  0  0
   -3.6122   -0.8855    0.0000 C   0  0  0  0  0  0  0  0  0  0  0  0
   -4.6649    0.1830    0.0000 C   0  0  0  0  0  0  0  0  0  0  0  0
   -4.2660    1.6289    0.0000 C   0  0  0  0  0  0  0  0  0  0  0  0
   -2.8142    2.0064    0.0000 N   0  0  0  0  0  4  0  0  0  0  0  0
   -2.0803    3.4784    0.0000 C   0  0  0  0  0  0  0  0  0  0  0  0
   -0.6095    3.7731    0.0000 C   0  0  0  0  0  0  0  0  0  0  0  0
    0.3811    2.6468    0.0000 C   0  0  0  0  0  0  0  0  0  0  0  0
   -0.3097    1.3154    0.0000 C   0  0  0  0  0  0  0  0  0  0  0  0
    0.7430    0.2469    0.0000 N   0  0  0  0  0  0  0  0  0  0  0  0
    2.0845    0.9179    0.0000 C   0  0  0  0  0  0  0  0  0  0  0  0
    3.4809    0.3700    0.0000 C   0  0  0  0  0  0  0  0  0  0  0  0
    4.6536    1.3053    0.0000 C   0  0  0  0  0  0  0  0  0  0  0  0
    4.4299    2.7885    0.0000 C   0  0  0  0  0  0  0  0  0  0  0  0
    3.0336    3.3365    0.0000 C   0  0  0  0  0  0  0  0  0  0  0  0
    1.8609    2.4012    0.0000 C   0  0  0  0  0  0  0  0  0  0  0  0
   -1.7615    0.9379    0.0000 C   0  0  0  0  0  0  0  0  0  0  0  0
  1  2  1  0
  2  3  1  0
  3  4  1  0
  4  5  2  0
  4  6  1  0
  6  7  2  0
  7  8  1  0
  8  9  1  1
  9 10  1  0
  8 11  1  0
 11 12  1  0
 12 13  1  0
 13 14  1  0
 14 15  1  0
 15 16  1  0
 16 17  1  0
 17 18  2  0
 18 19  1  0
 19 20  1  0
 20 21  2  0
 21 22  1  0
 22 23  2  0
 23 24  1  0
 24 25  2  0
 18 26  1  0
 19  6  1  0
 25 20  1  0
 26  8  1  0
 26 14  1  1
 25 17  1  0
M  CHG  1  14   1
M  END
> <Identifier>
VINPOCETINE

> <hERG>
1

$$$$

     RDKit          2D

 34 38  0  0  0  0  0  0  0  0999 V2000
   10.3444    2.7093    0.0000 C   0  0  0  0  0  0  0  0  0  0  0  0
    9.0505    1.9505    0.0000 O   0  0  0  0  0  0  0  0  0  0  0  0
    7.7464    2.6916    0.0000 C   0  0  0  0  0  0  0  0  0  0  0  0
    7.7362    4.1916    0.0000 O   0  0  0  0  0  0  0  0  0  0  0  0
    6.4525    1.9328    0.0000 C   0  0  0  0  0  0  0  0  0  0  0  0
    6.4627    0.4329    0.0000 C   0  0  0  0  0  0  0  0  0  0  0  0
    5.1688   -0.3260    0.0000 C   0  0  0  0  0  0  0  0  0  0  0  0
    3.8647    0.4152    0.0000 C   0  0  0  0  0  0  0  0  0  0  0  0
    2.5708   -0.3436    0.0000 N   0  0  0  0  0  0  0  0  0  0  0  0
    1.1963    0.2572    0.0000 C   0  0  0  0  0  0  0  0  0  0  0  0
    0.2002   -0.8644    0.0000 C   0  0  0  0  0  0  0  0  0  0  0  0
   -1.2926   -0.7177    0.0000 C   0  0  0  0  0  0  0  0  0  0  0  0
   -1.9120    0.6484    0.0000 C   0  0  0  0  0  0  0  0  0  0  0  0
   -3.4048    0.7951    0.0000 C   0  0  0  0  0  0  0  0  0  0  0  0
   -4.2782   -0.4244    0.0000 N   0  0  0  0  0  0  0  0  0  0  0  0
   -5.7710   -0.2778    0.0000 C   0  0  0  0  0  0  0  0  0  0  0  0
   -6.3904    1.0883    0.0000 C   0  0  0  0  0  0  0  0  0  0  0  0
   -7.8833    1.2350    0.0000 N   0  0  0  0  0  0  0  0  0  0  0  0
   -8.8793    0.1135    0.0000 C   0  0  0  0  0  0  0  0  0  0  0  0
  -10.2538    0.7142    0.0000 C   0  0  0  0  0  0  0  0  0  0  0  0
  -10.1071    2.2071    0.0000 N   0  0  0  0  0  0  0  0  0  0  0  0
   -8.6421    2.5289    0.0000 C   0  0  0  0  0  0  0  0  0  0  0  0
   -8.0413    3.9033    0.0000 O   0  0  0  0  0  0  0  0  0  0  0  0
   -3.6588   -1.7906    0.0000 C   0  0  0  0  0  0  0  0  0  0  0  0
   -2.1660   -1.9372    0.0000 C   0  0  0  0  0  0  0  0  0  0  0  0
    0.9590   -2.1583    0.0000 C   0  0  0  0  0  0  0  0  0  0  0  0
    0.5052   -3.5880    0.0000 C   0  0  0  0  0  0  0  0  0  0  0  0
    1.5165   -4.6958    0.0000 C   0  0  0  0  0  0  0  0  0  0  0  0
    1.0627   -6.1255    0.0000 Cl  0  0  0  0  0  0  0  0  0  0  0  0
    2.9816   -4.3740    0.0000 C   0  0  0  0  0  0  0  0  0  0  0  0
    3.4354   -2.9443    0.0000 C   0  0  0  0  0  0  0  0  0  0  0  0
    2.4241   -1.8364    0.0000 C   0  0  0  0  0  0  0  0  0  0  0  0
    3.8545    1.9152    0.0000 C   0  0  0  0  0  0  0  0  0  0  0  0
    5.1484    2.6740    0.0000 C   0  0  0  0  0  0  0  0  0  0  0  0
  1  2  1  0
  2  3  1  0
  3  4  2  0
  3  5  1  0
  5  6  2  0
  6  7  1  0
  7  8  2  0
  8  9  1  0
  9 10  1  0
 10 11  2  0
 11 12  1  0
 12 13  1  0
 13 14  1  0
 14 15  1  0
 15 16  1  0
 16 17  1  0
 17 18  1  0
 18 19  1  0
 19 20  1  0
 20 21  1  0
 21 22  1  0
 22 23  2  0
 15 24  1  0
 24 25  1  0
 11 26  1  0
 26 27  2  0
 27 28  1  0
 28 29  1  0
 28 30  2  0
 30 31  1  0
 31 32  2  0
  8 33  1  0
 33 34  2  0
 34  5  1  0
 32  9  1  0
 25 12  1  0
 32 26  1  0
 22 18  1  0
M  END
> <Identifier>
BMCL20031829_08

> <hERG>
1

$$$$

     RDKit          2D

 33 37  0  0  0  0  0  0  0  0999 V2000
   -9.8531    0.7240    0.0000 C   0  0  0  0  0  0  0  0  0  0  0  0
   -9.2437   -0.6467    0.0000 O   0  0  0  0  0  0  0  0  0  0  0  0
   -7.7520   -0.8042    0.0000 C   0  0  0  0  0  0  0  0  0  0  0  0
   -6.8697    0.4089    0.0000 C   0  0  0  0  0  0  0  0  0  0  0  0
   -5.3780    0.2513    0.0000 C   0  0  0  0  0  0  0  0  0  0  0  0
   -4.7686   -1.1193    0.0000 C   0  0  0  0  0  0  0  0  0  0  0  0
   -3.2769   -1.2768    0.0000 C   0  0  0  0  0  0  0  0  0  0  0  0
   -2.3946   -0.0638    0.0000 N   0  0  0  0  0  0  0  0  0  0  0  0
   -0.9029   -0.2213    0.0000 C   0  0  0  0  0  0  0  0  0  0  0  0
   -0.2935   -1.5919    0.0000 N   0  0  0  0  0  0  0  0  0  0  0  0
    1.1982   -1.7495    0.0000 N   0  0  0  0  0  0  0  0  0  0  0  0
    2.0805   -0.5364    0.0000 C   0  0  0  0  0  0  0  0  0  0  0  0
    3.5722   -0.6939    0.0000 N   0  0  0  0  0  0  0  0  0  0  0  0
    4.1816   -2.0646    0.0000 C   0  0  0  0  0  0  0  0  0  0  0  0
    5.6733   -2.2221    0.0000 C   0  0  0  0  0  0  0  0  0  0  0  0
    6.5556   -1.0090    0.0000 C   0  0  0  0  0  0  0  0  0  0  0  0
    5.9462    0.3616    0.0000 C   0  0  0  0  0  0  0  0  0  0  0  0
    4.4545    0.5191    0.0000 C   0  0  0  0  0  0  0  0  0  0  0  0
    7.4990   -2.1752    0.0000 C   0  0  0  0  0  0  0  0  0  0  0  0
    8.6652   -1.2318    0.0000 C   0  0  0  0  0  0  0  0  0  0  0  0
   10.1569   -1.3894    0.0000 O   0  0  0  0  0  0  0  0  0  0  0  0
    7.7218   -0.0656    0.0000 C   0  0  0  0  0  0  0  0  0  0  0  0
    1.4711    0.8342    0.0000 C   0  0  0  0  0  0  0  0  0  0  0  0
    2.3534    2.0473    0.0000 C   0  0  0  0  0  0  0  0  0  0  0  0
    1.7440    3.4179    0.0000 C   0  0  0  0  0  0  0  0  0  0  0  0
    0.2523    3.5755    0.0000 C   0  0  0  0  0  0  0  0  0  0  0  0
   -0.3572    4.9461    0.0000 C   0  0  0  0  0  0  0  0  0  0  0  0
   -0.9666    6.3167    0.0000 N   0  0  0  0  0  0  0  0  0  0  0  0
   -0.6300    2.3624    0.0000 C   0  0  0  0  0  0  0  0  0  0  0  0
   -0.0206    0.9918    0.0000 C   0  0  0  0  0  0  0  0  0  0  0  0
   -5.6509   -2.3324    0.0000 C   0  0  0  0  0  0  0  0  0  0  0  0
   -7.1426   -2.1748    0.0000 C   0  0  0  0  0  0  0  0  0  0  0  0
   -8.0249   -3.3879    0.0000 Cl  0  0  0  0  0  0  0  0  0  0  0  0
  1  2  1  0
  2  3  1  0
  3  4  2  0
  4  5  1  0
  5  6  2  0
  6  7  1  0
  7  8  1  0
  8  9  1  0
  9 10  2  0
 10 11  1  0
 11 12  2  0
 12 13  1  0
 13 14  1  0
 14 15  1  0
 15 16  1  0
 16 17  1  0
 17 18  1  0
 16 19  1  0
 19 20  1  0
 20 21  1  0
 20 22  1  0
 12 23  1  0
 23 24  2  0
 24 25  1  0
 25 26  2  0
 26 27  1  0
 27 28  3  0
 26 29  1  0
 29 30  2  0
  6 31  1  0
 31 32  2  0
 32 33  1  0
 32  3  1  0
 30  9  1  0
 18 13  1  0
 30 23  1  0
 22 16  1  0
M  END
> <Identifier>
ER-118585

> <hERG>
1

$$$$

     RDKit          2D

 39 43  0  0  0  0  0  0  0  0999 V2000
    6.7140   -6.1289    0.0000 C   0  0  0  0  0  0  0  0  0  0  0  0
    5.3327   -5.5440    0.0000 N   0  0  0  0  0  0  0  0  0  0  0  0
    4.1355   -6.4477    0.0000 C   0  0  0  0  0  0  0  0  0  0  0  0
    2.7543   -5.8628    0.0000 C   0  0  0  0  0  0  0  0  0  0  0  0
    2.5702   -4.3741    0.0000 N   0  0  0  0  0  0  0  0  0  0  0  0
    1.1890   -3.7892    0.0000 C   0  0  0  0  0  0  0  0  0  0  0  0
    1.0049   -2.3006    0.0000 C   0  0  0  0  0  0  0  0  0  0  0  0
   -0.3763   -1.7156    0.0000 C   0  0  0  0  0  0  0  0  0  0  0  0
   -0.5604   -0.2270    0.0000 N   0  0  0  0  0  0  0  0  0  0  0  0
    0.6368    0.6768    0.0000 C   0  0  0  0  0  0  0  0  0  0  0  0
    0.4527    2.1654    0.0000 O   0  0  0  0  0  0  0  0  0  0  0  0
    2.0180    0.0918    0.0000 N   0  0  0  0  0  0  0  0  0  0  0  0
    3.2152    0.9956    0.0000 C   0  0  0  0  0  0  0  0  0  0  0  0
    4.5965    0.4106    0.0000 C   0  0  0  0  0  0  0  0  0  0  0  0
    5.7937    1.3144    0.0000 C   0  0  0  0  0  0  0  0  0  0  0  0
    5.6096    2.8030    0.0000 C   0  0  0  0  0  0  0  0  0  0  0  0
    6.8068    3.7068    0.0000 F   0  0  0  0  0  0  0  0  0  0  0  0
    4.2284    3.3880    0.0000 C   0  0  0  0  0  0  0  0  0  0  0  0
    4.0443    4.8766    0.0000 C   0  0  0  0  0  0  0  0  0  0  0  0
    3.8602    6.3653    0.0000 F   0  0  0  0  0  0  0  0  0  0  0  0
    2.5556    4.6926    0.0000 F   0  0  0  0  0  0  0  0  0  0  0  0
    5.5330    5.0607    0.0000 F   0  0  0  0  0  0  0  0  0  0  0  0
    3.0312    2.4842    0.0000 C   0  0  0  0  0  0  0  0  0  0  0  0
   -1.9416    0.3580    0.0000 C   0  0  0  0  0  0  0  0  0  0  0  0
   -3.2267   -0.4157    0.0000 C   0  0  0  0  0  0  0  0  0  0  0  0
   -4.3596    0.5675    0.0000 C   0  0  0  0  0  0  0  0  0  0  0  0
   -5.8209    0.2288    0.0000 C   0  0  0  0  0  0  0  0  0  0  0  0
   -6.8448    1.3250    0.0000 C   0  0  0  0  0  0  0  0  0  0  0  0
   -8.3061    0.9863    0.0000 C   0  0  0  0  0  0  0  0  0  0  0  0
   -8.7434   -0.4485    0.0000 C   0  0  0  0  0  0  0  0  0  0  0  0
  -10.2047   -0.7872    0.0000 C   0  0  0  0  0  0  0  0  0  0  0  0
  -11.6660   -1.1258    0.0000 N   0  0  0  0  0  0  0  0  0  0  0  0
   -7.7195   -1.5447    0.0000 C   0  0  0  0  0  0  0  0  0  0  0  0
   -6.2583   -1.2060    0.0000 C   0  0  0  0  0  0  0  0  0  0  0  0
   -3.7747    1.9487    0.0000 C   0  0  0  0  0  0  0  0  0  0  0  0
   -2.9154    3.1782    0.0000 C   0  0  0  0  0  0  0  0  0  0  0  0
   -2.2803    1.8192    0.0000 C   0  0  0  0  0  0  0  0  0  0  0  0
    3.7674   -3.4704    0.0000 C   0  0  0  0  0  0  0  0  0  0  0  0
    5.1487   -4.0553    0.0000 C   0  0  0  0  0  0  0  0  0  0  0  0
  1  2  1  0
  2  3  1  0
  3  4  1  0
  4  5  1  0
  5  6  1  0
  6  7  1  0
  7  8  1  0
  8  9  1  0
  9 10  1  0
 10 11  2  0
 10 12  1  0
 12 13  1  0
 13 14  2  0
 14 15  1  0
 15 16  2  0
 16 17  1  0
 16 18  1  0
 18 19  1  0
 19 20  1  0
 19 21  1  0
 19 22  1  0
 18 23  2  0
 24  9  1  6
 24 25  1  0
 25 26  1  0
 26 27  1  1
 27 28  2  0
 28 29  1  0
 29 30  2  0
 30 31  1  0
 31 32  3  0
 30 33  1  0
 33 34  2  0
 26 35  1  0
 35 36  1  6
 37 36  1  1
  5 38  1  0
 38 39  1  0
 39  2  1  0
 23 13  1  0
 37 24  1  0
 34 27  1  0
 37 35  1  0
M  END
> <Identifier>
BMCL-16-2006-4263-1

> <hERG>
1

$$$$

     RDKit          2D

 55 62  0  0  0  0  0  0  0  0999 V2000
   -2.2856    3.6137    0.0000 C   0  0  0  0  0  0  0  0  0  0  0  0
   -3.6873    4.1480    0.0000 C   0  0  0  0  0  0  0  0  0  0  0  0
   -4.8508    3.2012    0.0000 O   0  0  0  0  0  0  0  0  0  0  0  0
   -6.2524    3.7354    0.0000 C   0  0  0  0  0  0  0  0  0  0  0  0
   -7.4159    2.7887    0.0000 O   0  0  0  0  0  0  0  0  0  0  0  0
   -7.1777    1.3077    0.0000 C   0  0  0  0  0  0  0  0  0  0  0  0
   -8.3412    0.3609    0.0000 C   0  0  0  0  0  0  0  0  0  0  0  0
   -9.7428    0.8951    0.0000 O   0  0  0  0  0  0  0  0  0  0  0  0
   -8.1030   -1.1200    0.0000 C   0  0  0  0  0  0  0  0  0  0  0  0
   -6.7013   -1.6542    0.0000 C   0  0  0  0  0  0  0  0  0  0  0  0
   -6.4632   -3.1352    0.0000 O   0  0  0  0  0  0  0  0  0  0  0  0
   -5.0615   -3.6694    0.0000 C   0  0  0  0  0  0  0  0  0  0  0  0
   -4.8233   -5.1504    0.0000 C   0  0  0  0  0  0  0  0  0  0  0  0
   -5.9868   -6.0972    0.0000 O   0  0  0  0  0  0  0  0  0  0  0  0
   -3.4217   -5.6846    0.0000 C   0  0  0  0  0  0  0  0  0  0  0  0
   -2.2582   -4.7379    0.0000 C   0  0  0  0  0  0  0  0  0  0  0  0
   -0.8566   -5.2721    0.0000 O   0  0  0  0  0  0  0  0  0  0  0  0
    0.3069   -4.3253    0.0000 C   0  0  0  0  0  0  0  0  0  0  0  0
    1.7085   -4.8595    0.0000 C   0  0  0  0  0  0  0  0  0  0  0  0
    2.8720   -3.9128    0.0000 C   0  0  0  0  0  0  0  0  0  0  0  0
    2.6338   -2.4318    0.0000 C   0  0  0  0  0  0  0  0  0  0  0  0
    4.0355   -2.9660    0.0000 C   0  0  0  0  0  0  0  0  0  0  0  0
    3.7973   -1.4851    0.0000 C   0  0  0  0  0  0  0  0  0  0  0  0
    5.1989   -2.0193    0.0000 C   0  0  0  0  0  0  0  0  0  0  0  0
    6.3624   -1.0725    0.0000 C   0  0  0  0  0  0  0  0  0  0  0  0
    7.7641   -1.6067    0.0000 O   0  0  0  0  0  0  0  0  0  0  0  0
    6.1242    0.4084    0.0000 C   0  0  0  0  0  0  0  0  0  0  0  0
    7.5740    0.0237    0.0000 C   0  0  0  0  0  0  0  0  0  0  0  0
    7.0654    1.5764    0.0000 C   0  0  0  0  0  0  0  0  0  0  0  0
    8.5636    1.5015    0.0000 C   0  0  0  0  0  0  0  0  0  0  0  0
    9.5048    2.6694    0.0000 C   0  0  0  0  0  0  0  0  0  0  0  0
   10.9064    2.1352    0.0000 C   0  0  0  0  0  0  0  0  0  0  0  0
   12.1625    2.9552    0.0000 O   0  0  0  0  0  0  0  0  0  0  0  0
   10.8315    0.6371    0.0000 O   0  0  0  0  0  0  0  0  0  0  0  0
    9.3835    0.2454    0.0000 C   0  0  0  0  0  0  0  0  0  0  0  0
    6.2455    2.8325    0.0000 C   0  0  0  0  0  0  0  0  0  0  0  0
    4.7975    2.4408    0.0000 C   0  0  0  0  0  0  0  0  0  0  0  0
    4.7226    0.9427    0.0000 C   0  0  0  0  0  0  0  0  0  0  0  0
    3.3845    1.6205    0.0000 O   0  0  0  0  0  0  0  0  0  0  0  0
    3.5591   -0.0041    0.0000 C   0  0  0  0  0  0  0  0  0  0  0  0
    2.1575    0.5301    0.0000 C   0  0  0  0  0  0  0  0  0  0  0  0
    0.9940   -0.4166    0.0000 C   0  0  0  0  0  0  0  0  0  0  0  0
    1.2322   -1.8976    0.0000 C   0  0  0  0  0  0  0  0  0  0  0  0
    0.0687   -2.8444    0.0000 C   0  0  0  0  0  0  0  0  0  0  0  0
   -2.4964   -3.2569    0.0000 O   0  0  0  0  0  0  0  0  0  0  0  0
   -3.8980   -2.7227    0.0000 C   0  0  0  0  0  0  0  0  0  0  0  0
   -4.1362   -1.2417    0.0000 C   0  0  0  0  0  0  0  0  0  0  0  0
   -5.5379   -0.7075    0.0000 O   0  0  0  0  0  0  0  0  0  0  0  0
   -5.7761    0.7735    0.0000 C   0  0  0  0  0  0  0  0  0  0  0  0
   -4.6126    1.7202    0.0000 C   0  0  0  0  0  0  0  0  0  0  0  0
   -6.4906    5.2164    0.0000 C   0  0  0  0  0  0  0  0  0  0  0  0
   -5.3271    6.1631    0.0000 C   0  0  0  0  0  0  0  0  0  0  0  0
   -5.5653    7.6441    0.0000 O   0  0  0  0  0  0  0  0  0  0  0  0
   -3.9255    5.6289    0.0000 C   0  0  0  0  0  0  0  0  0  0  0  0
   -2.7620    6.5757    0.0000 O   0  0  0  0  0  0  0  0  0  0  0  0
  2  1  1  1
  2  3  1  0
  3  4  1  0
  4  5  1  1
  6  5  1  6
  6  7  1  0
  7  8  1  6
  7  9  1  0
  9 10  1  0
 10 11  1  1
 12 11  1  6
 12 13  1  0
 13 14  1  6
 13 15  1  0
 15 16  1  0
 16 17  1  1
 18 17  1  6
 18 19  1  0
 19 20  1  0
 20 21  1  0
 21 22  1  6
 21 23  1  0
 23 24  1  6
 24 25  1  0
 25 26  1  6
 25 27  1  0
 27 28  1  6
 27 29  1  0
 29 30  1  6
 30 31  2  0
 31 32  1  0
 32 33  2  0
 32 34  1  0
 34 35  1  0
 29 36  1  0
 36 37  1  0
 37 38  1  0
 38 39  1  6
 38 40  1  0
 40 41  1  1
 41 42  1  0
 43 42  1  1
 43 44  1  0
 16 45  1  0
 45 46  1  0
 46 47  1  1
 10 48  1  0
 48 49  1  0
 49 50  1  1
  4 51  1  0
 51 52  1  0
 52 53  1  6
 52 54  1  0
 54 55  1  6
 54  2  1  0
 49  6  1  0
 46 12  1  0
 44 18  1  0
 43 21  1  0
 40 23  1  0
 38 27  1  0
 35 30  1  0
M  END
> <Identifier>
DIGOXIN

> <hERG>
1

$$$$

     RDKit          2D

 31 33  0  0  0  0  0  0  0  0999 V2000
   -1.5007   -4.1889    0.0000 C   0  0  0  0  0  0  0  0  0  0  0  0
   -0.9058   -2.8119    0.0000 C   0  0  0  0  0  0  0  0  0  0  0  0
    0.5841   -2.6386    0.0000 C   0  0  0  0  0  0  0  0  0  0  0  0
    1.1790   -1.2616    0.0000 C   0  0  0  0  0  0  0  0  0  0  0  0
    2.6690   -1.0883    0.0000 C   0  0  0  0  0  0  0  0  0  0  0  0
    3.6849   -2.1918    0.0000 O   0  0  0  0  0  0  0  0  0  0  0  0
    5.0484   -1.5666    0.0000 C   0  0  0  0  0  0  0  0  0  0  0  0
    6.4254   -2.1615    0.0000 C   0  0  0  0  0  0  0  0  0  0  0  0
    7.6291   -1.2664    0.0000 C   0  0  0  0  0  0  0  0  0  0  0  0
    7.4558    0.2236    0.0000 C   0  0  0  0  0  0  0  0  0  0  0  0
    6.0788    0.8185    0.0000 C   0  0  0  0  0  0  0  0  0  0  0  0
    4.8751   -0.0766    0.0000 C   0  0  0  0  0  0  0  0  0  0  0  0
    3.4045    0.2190    0.0000 C   0  0  0  0  0  0  0  0  0  0  0  0
    2.7793    1.5825    0.0000 C   0  0  0  0  0  0  0  0  0  0  0  0
    3.6475    2.8057    0.0000 O   0  0  0  0  0  0  0  0  0  0  0  0
    1.2859    1.7227    0.0000 C   0  0  0  0  0  0  0  0  0  0  0  0
    0.6606    3.0862    0.0000 C   0  0  0  0  0  0  0  0  0  0  0  0
   -0.8328    3.2265    0.0000 C   0  0  0  0  0  0  0  0  0  0  0  0
   -1.4581    4.5900    0.0000 I   0  0  0  0  0  0  0  0  0  0  0  0
   -1.7010    2.0033    0.0000 C   0  0  0  0  0  0  0  0  0  0  0  0
   -3.1944    2.1435    0.0000 O   0  0  0  0  0  0  0  0  0  0  0  0
   -4.0626    0.9203    0.0000 C   0  0  0  0  0  0  0  0  0  0  0  0
   -5.5560    1.0606    0.0000 C   0  0  0  0  0  0  0  0  0  0  0  0
   -6.4242   -0.1626    0.0000 N   0  0  0  0  0  0  0  0  0  0  0  0
   -7.9177   -0.0224    0.0000 C   0  0  0  0  0  0  0  0  0  0  0  0
   -8.7858   -1.2456    0.0000 C   0  0  0  0  0  0  0  0  0  0  0  0
   -5.7990   -1.5261    0.0000 C   0  0  0  0  0  0  0  0  0  0  0  0
   -6.6672   -2.7493    0.0000 C   0  0  0  0  0  0  0  0  0  0  0  0
   -1.0758    0.6398    0.0000 C   0  0  0  0  0  0  0  0  0  0  0  0
   -1.9439   -0.5834    0.0000 I   0  0  0  0  0  0  0  0  0  0  0  0
    0.4177    0.4995    0.0000 C   0  0  0  0  0  0  0  0  0  0  0  0
  1  2  1  0
  2  3  1  0
  3  4  1  0
  4  5  1  0
  5  6  1  0
  6  7  1  0
  7  8  2  0
  8  9  1  0
  9 10  2  0
 10 11  1  0
 11 12  2  0
 12 13  1  0
 13 14  1  0
 14 15  2  0
 14 16  1  0
 16 17  2  0
 17 18  1  0
 18 19  1  0
 18 20  2  0
 20 21  1  0
 21 22  1  0
 22 23  1  0
 23 24  1  0
 24 25  1  0
 25 26  1  0
 24 27  1  0
 27 28  1  0
 20 29  1  0
 29 30  1  0
 29 31  2  0
 13  5  2  0
 31 16  1  0
 12  7  1  0
M  END
> <Identifier>
AMIODARONE HYDROCHLORIDE

> <hERG>
1

$$$$

     RDKit          2D

 29 31  0  0  0  0  0  0  0  0999 V2000
  -10.7495    0.1672    0.0000 C   0  0  0  0  0  0  0  0  0  0  0  0
   -9.4425    0.9032    0.0000 C   0  0  0  0  0  0  0  0  0  0  0  0
   -8.1516    0.1393    0.0000 C   0  0  0  0  0  0  0  0  0  0  0  0
   -6.8445    0.8753    0.0000 C   0  0  0  0  0  0  0  0  0  0  0  0
   -5.5536    0.1114    0.0000 N   0  0  0  0  0  0  0  0  0  0  0  0
   -4.2466    0.8474    0.0000 C   0  0  0  0  0  0  0  0  0  0  0  0
   -2.9557    0.0835    0.0000 C   0  0  0  0  0  0  0  0  0  0  0  0
   -1.6487    0.8195    0.0000 C   0  0  0  0  0  0  0  0  0  0  0  0
   -1.6326    2.3194    0.0000 O   0  0  0  0  0  0  0  0  0  0  0  0
   -0.3578    0.0556    0.0000 C   0  0  0  0  0  0  0  0  0  0  0  0
   -0.3739   -1.4443    0.0000 C   0  0  0  0  0  0  0  0  0  0  0  0
    0.9170   -2.2083    0.0000 C   0  0  0  0  0  0  0  0  0  0  0  0
    0.9009   -3.7082    0.0000 C   0  0  0  0  0  0  0  0  0  0  0  0
   -0.4061   -4.4442    0.0000 Cl  0  0  0  0  0  0  0  0  0  0  0  0
    2.1918   -4.4721    0.0000 C   0  0  0  0  0  0  0  0  0  0  0  0
    3.4988   -3.7361    0.0000 C   0  0  0  0  0  0  0  0  0  0  0  0
    4.7897   -4.5000    0.0000 Cl  0  0  0  0  0  0  0  0  0  0  0  0
    3.5149   -2.2362    0.0000 C   0  0  0  0  0  0  0  0  0  0  0  0
    2.2240   -1.4723    0.0000 C   0  0  0  0  0  0  0  0  0  0  0  0
    2.2401    0.0277    0.0000 C   0  0  0  0  0  0  0  0  0  0  0  0
    3.5472    0.7636    0.0000 C   0  0  0  0  0  0  0  0  0  0  0  0
    3.5633    2.2636    0.0000 C   0  0  0  0  0  0  0  0  0  0  0  0
    4.8703    2.9996    0.0000 C   0  0  0  0  0  0  0  0  0  0  0  0
    6.1773    3.7356    0.0000 F   0  0  0  0  0  0  0  0  0  0  0  0
    5.6063    1.6925    0.0000 F   0  0  0  0  0  0  0  0  0  0  0  0
    4.1343    4.3066    0.0000 F   0  0  0  0  0  0  0  0  0  0  0  0
    2.2724    3.0275    0.0000 C   0  0  0  0  0  0  0  0  0  0  0  0
    0.9654    2.2915    0.0000 C   0  0  0  0  0  0  0  0  0  0  0  0
    0.9492    0.7916    0.0000 C   0  0  0  0  0  0  0  0  0  0  0  0
  1  2  1  0
  2  3  1  0
  3  4  1  0
  4  5  1  0
  5  6  1  0
  6  7  1  0
  7  8  1  0
  8  9  1  6
  8 10  1  0
 10 11  2  0
 11 12  1  0
 12 13  2  0
 13 14  1  0
 13 15  1  0
 15 16  2  0
 16 17  1  0
 16 18  1  0
 18 19  2  0
 19 20  1  0
 20 21  2  0
 21 22  1  0
 22 23  1  0
 23 24  1  0
 23 25  1  0
 23 26  1  0
 22 27  2  0
 27 28  1  0
 28 29  2  0
 29 10  1  0
 19 12  1  0
 29 20  1  0
M  END
> <Identifier>
DESBUTYLHALOFANTRINE

> <hERG>
1

$$$$

     RDKit          2D

 29 31  0  0  0  0  0  0  0  0999 V2000
  -10.7495    0.1672    0.0000 C   0  0  0  0  0  0  0  0  0  0  0  0
   -9.4425    0.9032    0.0000 C   0  0  0  0  0  0  0  0  0  0  0  0
   -8.1516    0.1393    0.0000 C   0  0  0  0  0  0  0  0  0  0  0  0
   -6.8445    0.8753    0.0000 C   0  0  0  0  0  0  0  0  0  0  0  0
   -5.5536    0.1114    0.0000 N   0  0  0  0  0  0  0  0  0  0  0  0
   -4.2466    0.8474    0.0000 C   0  0  0  0  0  0  0  0  0  0  0  0
   -2.9557    0.0835    0.0000 C   0  0  0  0  0  0  0  0  0  0  0  0
   -1.6487    0.8195    0.0000 C   0  0  0  0  0  0  0  0  0  0  0  0
   -1.6326    2.3194    0.0000 O   0  0  0  0  0  0  0  0  0  0  0  0
   -0.3578    0.0556    0.0000 C   0  0  0  0  0  0  0  0  0  0  0  0
   -0.3739   -1.4443    0.0000 C   0  0  0  0  0  0  0  0  0  0  0  0
    0.9170   -2.2083    0.0000 C   0  0  0  0  0  0  0  0  0  0  0  0
    0.9009   -3.7082    0.0000 C   0  0  0  0  0  0  0  0  0  0  0  0
   -0.4061   -4.4442    0.0000 Cl  0  0  0  0  0  0  0  0  0  0  0  0
    2.1918   -4.4721    0.0000 C   0  0  0  0  0  0  0  0  0  0  0  0
    3.4988   -3.7361    0.0000 C   0  0  0  0  0  0  0  0  0  0  0  0
    4.7897   -4.5000    0.0000 Cl  0  0  0  0  0  0  0  0  0  0  0  0
    3.5149   -2.2362    0.0000 C   0  0  0  0  0  0  0  0  0  0  0  0
    2.2240   -1.4723    0.0000 C   0  0  0  0  0  0  0  0  0  0  0  0
    2.2401    0.0277    0.0000 C   0  0  0  0  0  0  0  0  0  0  0  0
    3.5472    0.7636    0.0000 C   0  0  0  0  0  0  0  0  0  0  0  0
    3.5633    2.2636    0.0000 C   0  0  0  0  0  0  0  0  0  0  0  0
    4.8703    2.9996    0.0000 C   0  0  0  0  0  0  0  0  0  0  0  0
    6.1773    3.7356    0.0000 F   0  0  0  0  0  0  0  0  0  0  0  0
    5.6063    1.6925    0.0000 F   0  0  0  0  0  0  0  0  0  0  0  0
    4.1343    4.3066    0.0000 F   0  0  0  0  0  0  0  0  0  0  0  0
    2.2724    3.0275    0.0000 C   0  0  0  0  0  0  0  0  0  0  0  0
    0.9654    2.2915    0.0000 C   0  0  0  0  0  0  0  0  0  0  0  0
    0.9492    0.7916    0.0000 C   0  0  0  0  0  0  0  0  0  0  0  0
  1  2  1  0
  2  3  1  0
  3  4  1  0
  4  5  1  0
  5  6  1  0
  6  7  1  0
  7  8  1  0
  8  9  1  0
  8 10  1  0
 10 11  2  0
 11 12  1  0
 12 13  2  0
 13 14  1  0
 13 15  1  0
 15 16  2  0
 16 17  1  0
 16 18  1  0
 18 19  2  0
 19 20  1  0
 20 21  2  0
 21 22  1  0
 22 23  1  0
 23 24  1  0
 23 25  1  0
 23 26  1  0
 22 27  2  0
 27 28  1  0
 28 29  2  0
 29 10  1  0
 19 12  1  0
 29 20  1  0
M  END
> <Identifier>
N-DESBUTYLHALOFANTRINE

> <hERG>
1

$$$$

     RDKit          2D

 32 36  0  0  0  0  0  0  0  0999 V2000
    2.7081    2.8888    0.0000 N   0  0  0  0  0  0  0  0  0  0  0  0
    1.9840    1.5751    0.0000 C   0  0  0  0  0  0  0  0  0  0  0  0
    0.4843    1.5454    0.0000 O   0  0  0  0  0  0  0  0  0  0  0  0
    2.7596    0.2912    0.0000 C   0  0  0  0  0  0  0  0  0  0  0  0
    4.0435    1.0668    0.0000 C   0  0  0  0  0  0  0  0  0  0  0  0
    5.3571    0.3427    0.0000 C   0  0  0  0  0  0  0  0  0  0  0  0
    6.6411    1.1182    0.0000 C   0  0  0  0  0  0  0  0  0  0  0  0
    6.6114    2.6179    0.0000 C   0  0  0  0  0  0  0  0  0  0  0  0
    5.2977    3.3421    0.0000 C   0  0  0  0  0  0  0  0  0  0  0  0
    4.0138    2.5665    0.0000 C   0  0  0  0  0  0  0  0  0  0  0  0
    3.5352   -0.9927    0.0000 C   0  0  0  0  0  0  0  0  0  0  0  0
    2.8110   -2.3064    0.0000 C   0  0  0  0  0  0  0  0  0  0  0  0
    3.5866   -3.5903    0.0000 C   0  0  0  0  0  0  0  0  0  0  0  0
    5.0863   -3.5606    0.0000 C   0  0  0  0  0  0  0  0  0  0  0  0
    5.8104   -2.2469    0.0000 C   0  0  0  0  0  0  0  0  0  0  0  0
    5.0349   -0.9630    0.0000 C   0  0  0  0  0  0  0  0  0  0  0  0
    1.4756   -0.4844    0.0000 C   0  0  0  0  0  0  0  0  0  0  0  0
    1.3484   -1.9790    0.0000 C   0  0  0  0  0  0  0  0  0  0  0  0
   -0.1123   -2.3199    0.0000 C   0  0  0  0  0  0  0  0  0  0  0  0
   -0.8879   -1.0359    0.0000 N   0  0  0  0  0  0  0  0  0  0  0  0
   -2.3825   -0.9087    0.0000 C   0  0  0  0  0  0  0  0  0  0  0  0
   -3.0196    0.4493    0.0000 C   0  0  0  0  0  0  0  0  0  0  0  0
   -4.5142    0.5765    0.0000 C   0  0  0  0  0  0  0  0  0  0  0  0
   -5.1514    1.9344    0.0000 C   0  0  0  0  0  0  0  0  0  0  0  0
   -6.6460    2.0616    0.0000 C   0  0  0  0  0  0  0  0  0  0  0  0
   -7.5034    0.8309    0.0000 C   0  0  0  0  0  0  0  0  0  0  0  0
   -6.8663   -0.5271    0.0000 C   0  0  0  0  0  0  0  0  0  0  0  0
   -5.3717   -0.6543    0.0000 C   0  0  0  0  0  0  0  0  0  0  0  0
   -7.9609   -1.5527    0.0000 C   0  0  0  0  0  0  0  0  0  0  0  0
   -9.2745   -0.8285    0.0000 C   0  0  0  0  0  0  0  0  0  0  0  0
   -8.9918    0.6446    0.0000 O   0  0  0  0  0  0  0  0  0  0  0  0
    0.0935    0.0985    0.0000 C   0  0  0  0  0  0  0  0  0  0  0  0
  1  2  1  0
  2  3  2  0
  2  4  1  0
  4  5  1  0
  5  6  2  0
  6  7  1  0
  7  8  2  0
  8  9  1  0
  9 10  2  0
  4 11  1  0
 11 12  2  0
 12 13  1  0
 13 14  2  0
 14 15  1  0
 15 16  2  0
 17  4  1  6
 17 18  1  0
 18 19  1  0
 19 20  1  0
 20 21  1  0
 21 22  1  0
 22 23  1  0
 23 24  2  0
 24 25  1  0
 25 26  2  0
 26 27  1  0
 27 28  2  0
 27 29  1  0
 29 30  1  0
 30 31  1  0
 20 32  1  0
 10  5  1  0
 16 11  1  0
 32 17  1  0
 28 23  1  0
 31 26  1  0
M  END
> <Identifier>
DARIFENACIN

> <hERG>
1

$$$$

     RDKit          2D

 27 31  0  0  0  0  0  0  0  0999 V2000
    1.2349   -5.0190    0.0000 C   0  0  0  0  0  0  0  0  0  0  0  0
    0.2396   -3.8968    0.0000 C   0  0  0  0  0  0  0  0  0  0  0  0
    0.7139   -2.4737    0.0000 C   0  0  0  0  0  0  0  0  0  0  0  0
    2.1834   -2.1729    0.0000 C   0  0  0  0  0  0  0  0  0  0  0  0
    2.6577   -0.7499    0.0000 C   0  0  0  0  0  0  0  0  0  0  0  0
    4.0878   -0.2972    0.0000 N   0  0  0  0  0  0  0  0  0  0  0  0
    4.0991    1.2028    0.0000 C   0  0  0  0  0  0  0  0  0  0  0  0
    5.2213    2.1981    0.0000 C   0  0  0  0  0  0  0  0  0  0  0  0
    4.9206    3.6676    0.0000 C   0  0  0  0  0  0  0  0  0  0  0  0
    3.4975    4.1419    0.0000 C   0  0  0  0  0  0  0  0  0  0  0  0
    2.3753    3.1466    0.0000 C   0  0  0  0  0  0  0  0  0  0  0  0
    2.6760    1.6771    0.0000 C   0  0  0  0  0  0  0  0  0  0  0  0
    1.7852    0.4703    0.0000 C   0  0  0  0  0  0  0  0  0  0  0  0
    0.2853    0.4816    0.0000 C   0  0  0  0  0  0  0  0  0  0  0  0
   -0.4549    1.7862    0.0000 C   0  0  0  0  0  0  0  0  0  0  0  0
   -1.9549    1.7976    0.0000 C   0  0  0  0  0  0  0  0  0  0  0  0
   -2.7146    0.5042    0.0000 N   0  0  0  0  0  0  0  0  0  0  0  0
   -4.2146    0.5155    0.0000 C   0  0  0  0  0  0  0  0  0  0  0  0
   -4.9548    1.8202    0.0000 C   0  0  0  0  0  0  0  0  0  0  0  0
   -6.4547    1.8315    0.0000 C   0  0  0  0  0  0  0  0  0  0  0  0
   -7.2145    0.5382    0.0000 C   0  0  0  0  0  0  0  0  0  0  0  0
   -6.4743   -0.7665    0.0000 C   0  0  0  0  0  0  0  0  0  0  0  0
   -4.9744   -0.7778    0.0000 C   0  0  0  0  0  0  0  0  0  0  0  0
   -1.9745   -0.8004    0.0000 C   0  0  0  0  0  0  0  0  0  0  0  0
   -0.4745   -0.8118    0.0000 C   0  0  0  0  0  0  0  0  0  0  0  0
    3.1787   -3.2952    0.0000 C   0  0  0  0  0  0  0  0  0  0  0  0
    2.7044   -4.7182    0.0000 C   0  0  0  0  0  0  0  0  0  0  0  0
  1  2  2  0
  2  3  1  0
  3  4  2  0
  4  5  1  0
  5  6  1  0
  6  7  1  0
  7  8  2  0
  8  9  1  0
  9 10  2  0
 10 11  1  0
 11 12  2  0
 12 13  1  0
 13 14  1  0
 14 15  1  0
 15 16  1  0
 16 17  1  0
 17 18  1  0
 18 19  2  0
 19 20  1  0
 20 21  2  0
 21 22  1  0
 22 23  2  0
 17 24  1  0
 24 25  1  0
  4 26  1  0
 26 27  2  0
 27  1  1  0
 13  5  2  0
 25 14  1  0
 12  7  1  0
 23 18  1  0
M  END
> <Identifier>
WOMBAT06

> <hERG>
1

$$$$

     RDKit          2D

 30 34  0  0  0  0  0  0  0  0999 V2000
   -7.7842    2.1078    0.0000 O   0  0  0  0  0  0  0  0  0  0  0  0
   -7.9780    0.6204    0.0000 C   0  0  0  0  0  0  0  0  0  0  0  0
   -9.2952   -0.0971    0.0000 N   0  0  0  0  0  0  0  0  0  0  0  0
   -9.0199   -1.5716    0.0000 C   0  0  0  0  0  0  0  0  0  0  0  0
   -7.5324   -1.7654    0.0000 C   0  0  0  0  0  0  0  0  0  0  0  0
   -6.8885   -0.4107    0.0000 N   0  0  0  0  0  0  0  0  0  0  0  0
   -5.4140   -0.1353    0.0000 C   0  0  0  0  0  0  0  0  0  0  0  0
   -4.4383   -1.2746    0.0000 C   0  0  0  0  0  0  0  0  0  0  0  0
   -2.9638   -0.9992    0.0000 N   0  0  0  0  0  0  0  0  0  0  0  0
   -1.9880   -2.1385    0.0000 C   0  0  0  0  0  0  0  0  0  0  0  0
   -0.5135   -1.8631    0.0000 C   0  0  0  0  0  0  0  0  0  0  0  0
   -0.0147   -0.4485    0.0000 C   0  0  0  0  0  0  0  0  0  0  0  0
    1.4598   -0.1731    0.0000 C   0  0  0  0  0  0  0  0  0  0  0  0
    2.5492   -1.2042    0.0000 C   0  0  0  0  0  0  0  0  0  0  0  0
    3.8665   -0.4866    0.0000 N   0  0  0  0  0  0  0  0  0  0  0  0
    5.2212   -1.1306    0.0000 C   0  0  0  0  0  0  0  0  0  0  0  0
    5.3410   -2.6258    0.0000 C   0  0  0  0  0  0  0  0  0  0  0  0
    6.6957   -3.2697    0.0000 C   0  0  0  0  0  0  0  0  0  0  0  0
    7.9307   -2.4184    0.0000 C   0  0  0  0  0  0  0  0  0  0  0  0
    7.8110   -0.9232    0.0000 C   0  0  0  0  0  0  0  0  0  0  0  0
    6.4563   -0.2793    0.0000 C   0  0  0  0  0  0  0  0  0  0  0  0
    3.5911    0.9879    0.0000 C   0  0  0  0  0  0  0  0  0  0  0  0
    4.5026    2.1791    0.0000 C   0  0  0  0  0  0  0  0  0  0  0  0
    3.9267    3.5642    0.0000 C   0  0  0  0  0  0  0  0  0  0  0  0
    2.4393    3.7579    0.0000 C   0  0  0  0  0  0  0  0  0  0  0  0
    1.8634    5.1430    0.0000 Cl  0  0  0  0  0  0  0  0  0  0  0  0
    1.5278    2.5667    0.0000 C   0  0  0  0  0  0  0  0  0  0  0  0
    2.1037    1.1816    0.0000 C   0  0  0  0  0  0  0  0  0  0  0  0
   -0.9905    0.6908    0.0000 C   0  0  0  0  0  0  0  0  0  0  0  0
   -2.4650    0.4154    0.0000 C   0  0  0  0  0  0  0  0  0  0  0  0
  1  2  2  0
  2  3  1  0
  3  4  1  0
  4  5  1  0
  5  6  1  0
  6  7  1  0
  7  8  1  0
  8  9  1  0
  9 10  1  0
 10 11  1  0
 11 12  1  0
 12 13  1  0
 13 14  2  0
 14 15  1  0
 15 16  1  0
 16 17  2  0
 17 18  1  0
 18 19  2  0
 19 20  1  0
 20 21  2  0
 15 22  1  0
 22 23  2  0
 23 24  1  0
 24 25  2  0
 25 26  1  0
 25 27  1  0
 27 28  2  0
 12 29  1  0
 29 30  1  0
  6  2  1  0
 30  9  1  0
 28 13  1  0
 21 16  1  0
 28 22  1  0
M  END
> <Identifier>
BMCL20031829_01

> <hERG>
1

$$$$

     RDKit          2D

 30 32  0  0  0  0  0  0  0  0999 V2000
    8.4098   -2.7499    0.0000 C   0  0  0  0  0  0  0  0  0  0  0  0
    8.6208   -1.2648    0.0000 C   0  0  0  0  0  0  0  0  0  0  0  0
    8.8319    0.2203    0.0000 C   0  0  0  0  0  0  0  0  0  0  0  0
   10.1059   -1.4759    0.0000 C   0  0  0  0  0  0  0  0  0  0  0  0
    7.1358   -1.0537    0.0000 O   0  0  0  0  0  0  0  0  0  0  0  0
    6.5760    0.3379    0.0000 C   0  0  0  0  0  0  0  0  0  0  0  0
    7.5014    1.5185    0.0000 O   0  0  0  0  0  0  0  0  0  0  0  0
    5.0910    0.5490    0.0000 N   0  0  0  0  0  0  0  0  0  0  0  0
    4.6368    1.9786    0.0000 C   0  0  0  0  0  0  0  0  0  0  0  0
    3.2359    2.5148    0.0000 C   0  0  0  0  0  0  0  0  0  0  0  0
    1.9432    1.7540    0.0000 C   0  0  0  0  0  0  0  0  0  0  0  0
    0.5454    1.1999    0.0000 C   0  0  0  0  0  0  0  0  0  0  0  0
    0.2239   -0.2653    0.0000 N   0  0  0  0  0  4  0  0  0  0  0  0
   -1.2057   -0.7194    0.0000 C   0  0  0  0  0  0  0  0  0  0  0  0
   -2.3138    0.2915    0.0000 C   0  0  0  0  0  0  0  0  0  0  0  0
   -1.9923    1.7567    0.0000 O   0  0  0  0  0  0  0  0  0  0  0  0
   -3.7434   -0.1626    0.0000 C   0  0  0  0  0  0  0  0  0  0  0  0
   -4.8515    0.8483    0.0000 O   0  0  0  0  0  0  0  0  0  0  0  0
   -6.2811    0.3942    0.0000 C   0  0  0  0  0  0  0  0  0  0  0  0
   -7.3892    1.4051    0.0000 C   0  0  0  0  0  0  0  0  0  0  0  0
   -8.8188    0.9510    0.0000 C   0  0  0  0  0  0  0  0  0  0  0  0
   -9.1403   -0.5142    0.0000 C   0  0  0  0  0  0  0  0  0  0  0  0
  -10.5699   -0.9684    0.0000 C   0  0  0  0  0  0  0  0  0  0  0  0
  -11.9995   -1.4225    0.0000 N   0  0  0  0  0  0  0  0  0  0  0  0
   -8.0322   -1.5252    0.0000 C   0  0  0  0  0  0  0  0  0  0  0  0
   -6.6026   -1.0710    0.0000 C   0  0  0  0  0  0  0  0  0  0  0  0
    1.3320   -1.2763    0.0000 C   0  0  0  0  0  0  0  0  0  0  0  0
    2.7616   -0.8221    0.0000 C   0  0  0  0  0  0  0  0  0  0  0  0
    4.2564   -0.6974    0.0000 C   0  0  0  0  0  0  0  0  0  0  0  0
    1.7322    0.2689    0.0000 O   0  0  0  0  0  0  0  0  0  0  0  0
  1  2  1  0
  2  3  1  0
  2  4  1  0
  2  5  1  0
  5  6  1  0
  6  7  2  0
  6  8  1  0
  8  9  1  0
  9 10  1  0
 11 10  1  1
 11 12  1  0
 12 13  1  0
 13 14  1  0
 14 15  1  0
 15 16  1  6
 15 17  1  0
 17 18  1  0
 18 19  1  0
 19 20  2  0
 20 21  1  0
 21 22  2  0
 22 23  1  0
 23 24  3  0
 22 25  1  0
 25 26  2  0
 13 27  1  0
 28 27  1  6
 28 29  1  0
 28 30  1  0
 29  8  1  0
 30 11  1  0
 26 19  1  0
M  CHG  1  13   1
M  END
> <Identifier>
H345_32

> <hERG>
1

$$$$

     RDKit          2D

 25 28  0  0  0  0  0  0  0  0999 V2000
   -0.2576    5.8887    0.0000 C   0  0  0  0  0  0  0  0  0  0  0  0
   -0.6041    4.4293    0.0000 S   0  0  0  0  0  0  0  0  0  0  0  0
    0.4866    3.3995    0.0000 C   0  0  0  0  0  0  0  0  0  0  0  0
    1.9238    3.8292    0.0000 C   0  0  0  0  0  0  0  0  0  0  0  0
    3.0144    2.7994    0.0000 C   0  0  0  0  0  0  0  0  0  0  0  0
    2.6680    1.3400    0.0000 C   0  0  0  0  0  0  0  0  0  0  0  0
    1.2308    0.9103    0.0000 C   0  0  0  0  0  0  0  0  0  0  0  0
    0.1401    1.9401    0.0000 C   0  0  0  0  0  0  0  0  0  0  0  0
    0.8843   -0.5491    0.0000 N   0  0  0  0  0  0  0  0  0  0  0  0
   -0.5528   -0.9788    0.0000 C   0  0  0  0  0  0  0  0  0  0  0  0
   -1.6435    0.0510    0.0000 C   0  0  0  0  0  0  0  0  0  0  0  0
   -3.0806   -0.3787    0.0000 C   0  0  0  0  0  0  0  0  0  0  0  0
   -4.1713    0.6511    0.0000 C   0  0  0  0  0  0  0  0  0  0  0  0
   -5.6084    0.2214    0.0000 C   0  0  0  0  0  0  0  0  0  0  0  0
   -5.9549   -1.2380    0.0000 C   0  0  0  0  0  0  0  0  0  0  0  0
   -4.8642   -2.2678    0.0000 C   0  0  0  0  0  0  0  0  0  0  0  0
   -3.4271   -1.8381    0.0000 N   0  0  0  0  0  4  0  0  0  0  0  0
   -2.3364   -2.8679    0.0000 C   0  0  0  0  0  0  0  0  0  0  0  0
    1.9750   -1.5789    0.0000 C   0  0  0  0  0  0  0  0  0  0  0  0
    1.6286   -3.0383    0.0000 C   0  0  0  0  0  0  0  0  0  0  0  0
    2.7192   -4.0681    0.0000 C   0  0  0  0  0  0  0  0  0  0  0  0
    4.1564   -3.6384    0.0000 C   0  0  0  0  0  0  0  0  0  0  0  0
    4.5028   -2.1790    0.0000 C   0  0  0  0  0  0  0  0  0  0  0  0
    3.4122   -1.1492    0.0000 C   0  0  0  0  0  0  0  0  0  0  0  0
    3.7586    0.3102    0.0000 S   0  0  0  0  0  0  0  0  0  0  0  0
  1  2  1  0
  2  3  1  0
  3  4  2  0
  4  5  1  0
  5  6  2  0
  6  7  1  0
  7  8  2  0
  7  9  1  0
  9 10  1  0
 10 11  1  0
 12 11  1  6
 12 13  1  0
 13 14  1  0
 14 15  1  0
 15 16  1  0
 16 17  1  0
 17 18  1  0
  9 19  1  0
 19 20  2  0
 20 21  1  0
 21 22  2  0
 22 23  1  0
 23 24  2  0
 24 25  1  0
  8  3  1  0
 17 12  1  0
 24 19  1  0
 25  6  1  0
M  CHG  1  17   1
M  END
> <Identifier>
THIORIDAZINE

> <hERG>
1

$$$$

     RDKit          2D

 25 25  0  0  0  0  0  0  0  0999 V2000
  -12.4966    0.2462    0.0000 C   0  0  0  0  0  0  0  0  0  0  0  0
  -11.1373    0.8806    0.0000 C   0  0  0  0  0  0  0  0  0  0  0  0
   -9.9083    0.0206    0.0000 C   0  0  0  0  0  0  0  0  0  0  0  0
   -8.5491    0.6549    0.0000 C   0  0  0  0  0  0  0  0  0  0  0  0
   -7.3201   -0.2051    0.0000 C   0  0  0  0  0  0  0  0  0  0  0  0
   -5.9608    0.4293    0.0000 C   0  0  0  0  0  0  0  0  0  0  0  0
   -4.7318   -0.4307    0.0000 C   0  0  0  0  0  0  0  0  0  0  0  0
   -3.3726    0.2037    0.0000 C   0  0  0  0  0  0  0  0  0  0  0  0
   -2.1436   -0.6563    0.0000 C   0  0  0  0  0  0  0  0  0  0  0  0
   -2.2738   -2.1507    0.0000 O   0  0  0  0  0  0  0  0  0  0  0  0
   -0.7843   -0.0220    0.0000 N   0  0  0  0  0  0  0  0  0  0  0  0
    0.4447   -0.8820    0.0000 C   0  0  0  0  0  0  0  0  0  0  0  0
    1.8040   -0.2476    0.0000 C   0  0  0  0  0  0  0  0  0  0  0  0
    1.9342    1.2467    0.0000 C   0  0  0  0  0  0  0  0  0  0  0  0
    3.2935    1.8811    0.0000 C   0  0  0  0  0  0  0  0  0  0  0  0
    4.5225    1.0211    0.0000 C   0  0  0  0  0  0  0  0  0  0  0  0
    5.8818    1.6554    0.0000 C   0  0  0  0  0  0  0  0  0  0  0  0
    7.1108    0.7955    0.0000 C   0  0  0  0  0  0  0  0  0  0  0  0
    6.9805   -0.6989    0.0000 O   0  0  0  0  0  0  0  0  0  0  0  0
    8.4700    1.4298    0.0000 C   0  0  0  0  0  0  0  0  0  0  0  0
    9.6990    0.5698    0.0000 O   0  0  0  0  0  0  0  0  0  0  0  0
    4.3922   -0.4732    0.0000 C   0  0  0  0  0  0  0  0  0  0  0  0
    5.6212   -1.3332    0.0000 O   0  0  0  0  0  0  0  0  0  0  0  0
    5.4910   -2.8276    0.0000 C   0  0  0  0  0  0  0  0  0  0  0  0
    3.0330   -1.1076    0.0000 C   0  0  0  0  0  0  0  0  0  0  0  0
  1  2  1  0
  2  3  1  0
  3  4  1  0
  4  5  1  0
  5  6  1  0
  6  7  1  0
  7  8  1  0
  8  9  1  0
  9 10  2  0
  9 11  1  0
 11 12  1  0
 12 13  1  0
 13 14  2  0
 14 15  1  0
 15 16  2  0
 16 17  1  0
 17 18  1  0
 18 19  1  6
 18 20  1  0
 20 21  1  0
 16 22  1  0
 22 23  1  0
 23 24  1  0
 22 25  2  0
 25 13  1  0
M  END
> <Identifier>
GLYCERYL-NONIVAMIDE

> <hERG>
1

$$$$

     RDKit          2D

 24 26  0  0  0  0  0  0  0  0999 V2000
   -3.8835    3.0867    0.0000 C   0  0  0  0  0  0  0  0  0  0  0  0
   -3.0794    1.8204    0.0000 C   0  0  0  0  0  0  0  0  0  0  0  0
   -3.7740    0.4909    0.0000 C   0  0  0  0  0  0  0  0  0  0  0  0
   -5.2727    0.4277    0.0000 O   0  0  0  0  0  0  0  0  0  0  0  0
   -2.9700   -0.7753    0.0000 C   0  0  0  0  0  0  0  0  0  0  0  0
   -3.6646   -2.1048    0.0000 C   0  0  0  0  0  0  0  0  0  0  0  0
   -2.8605   -3.3711    0.0000 C   0  0  0  0  0  0  0  0  0  0  0  0
   -1.3618   -3.3079    0.0000 C   0  0  0  0  0  0  0  0  0  0  0  0
   -0.5578   -4.5742    0.0000 O   0  0  0  0  0  0  0  0  0  0  0  0
   -0.6672   -1.9784    0.0000 C   0  0  0  0  0  0  0  0  0  0  0  0
   -1.4713   -0.7121    0.0000 C   0  0  0  0  0  0  0  0  0  0  0  0
   -1.5808    1.8836    0.0000 N   0  0  0  0  0  0  0  0  0  0  0  0
   -0.7767    0.6173    0.0000 C   0  0  0  0  0  0  0  0  0  0  0  0
    0.7220    0.6805    0.0000 C   0  0  0  0  0  0  0  0  0  0  0  0
    1.4166    2.0100    0.0000 C   0  0  0  0  0  0  0  0  0  0  0  0
    2.9152    2.0732    0.0000 C   0  0  0  0  0  0  0  0  0  0  0  0
    3.7193    0.8069    0.0000 C   0  0  0  0  0  0  0  0  0  0  0  0
    3.0247   -0.5225    0.0000 C   0  0  0  0  0  0  0  0  0  0  0  0
    3.8288   -1.7888    0.0000 C   0  0  0  0  0  0  0  0  0  0  0  0
    5.3274   -1.7256    0.0000 C   0  0  0  0  0  0  0  0  0  0  0  0
    6.0220   -0.3961    0.0000 C   0  0  0  0  0  0  0  0  0  0  0  0
    5.2180    0.8701    0.0000 C   0  0  0  0  0  0  0  0  0  0  0  0
    0.6125    3.2763    0.0000 C   0  0  0  0  0  0  0  0  0  0  0  0
   -0.8862    3.2131    0.0000 C   0  0  0  0  0  0  0  0  0  0  0  0
  2  1  1  1
  2  3  1  0
  3  4  1  1
  3  5  1  0
  5  6  2  0
  6  7  1  0
  7  8  2  0
  8  9  1  0
  8 10  1  0
 10 11  2  0
  2 12  1  0
 12 13  1  0
 13 14  1  0
 14 15  1  0
 15 16  1  0
 16 17  1  0
 17 18  2  0
 18 19  1  0
 19 20  2  0
 20 21  1  0
 21 22  2  0
 15 23  1  0
 23 24  1  0
 11  5  1  0
 24 12  1  0
 22 17  1  0
M  END
> <Identifier>
IFENPRODIL

> <hERG>
1

$$$$

     RDKit          2D

 28 30  0  0  0  0  0  0  0  0999 V2000
    4.2459    3.1636    0.0000 C   0  0  0  0  0  0  0  0  0  0  0  0
    3.9282    1.6976    0.0000 C   0  0  0  0  0  0  0  0  0  0  0  0
    2.4998    1.2398    0.0000 C   0  0  0  0  0  0  0  0  0  0  0  0
    2.1821   -0.2262    0.0000 C   0  0  0  0  0  0  0  0  0  0  0  0
    3.2928   -1.2343    0.0000 C   0  0  0  0  0  0  0  0  0  0  0  0
    2.9752   -2.7003    0.0000 C   0  0  0  0  0  0  0  0  0  0  0  0
    4.0859   -3.7084    0.0000 C   0  0  0  0  0  0  0  0  0  0  0  0
    5.5143   -3.2506    0.0000 C   0  0  0  0  0  0  0  0  0  0  0  0
    5.8320   -1.7846    0.0000 C   0  0  0  0  0  0  0  0  0  0  0  0
    4.7213   -0.7765    0.0000 C   0  0  0  0  0  0  0  0  0  0  0  0
    0.7537   -0.6841    0.0000 C   0  0  0  0  0  0  0  0  0  0  0  0
   -0.3570    0.3240    0.0000 C   0  0  0  0  0  0  0  0  0  0  0  0
   -1.7854   -0.1338    0.0000 C   0  0  0  0  0  0  0  0  0  0  0  0
   -2.1031   -1.5998    0.0000 C   0  0  0  0  0  0  0  0  0  0  0  0
   -3.5315   -2.0577    0.0000 O   0  0  0  0  0  0  0  0  0  0  0  0
   -4.6423   -1.0495    0.0000 C   0  0  0  0  0  0  0  0  0  0  0  0
   -6.0707   -1.5074    0.0000 C   0  0  0  0  0  0  0  0  0  0  0  0
   -7.1814   -0.4993    0.0000 N   0  0  0  0  0  0  0  0  0  0  0  0
   -8.6098   -0.9571    0.0000 C   0  0  0  0  0  0  0  0  0  0  0  0
   -6.8637    0.9667    0.0000 C   0  0  0  0  0  0  0  0  0  0  0  0
   -0.9924   -2.6079    0.0000 C   0  0  0  0  0  0  0  0  0  0  0  0
    0.4360   -2.1500    0.0000 C   0  0  0  0  0  0  0  0  0  0  0  0
    1.3891    2.2479    0.0000 C   0  0  0  0  0  0  0  0  0  0  0  0
    1.7068    3.7138    0.0000 C   0  0  0  0  0  0  0  0  0  0  0  0
    0.5960    4.7220    0.0000 C   0  0  0  0  0  0  0  0  0  0  0  0
   -0.8324    4.2641    0.0000 C   0  0  0  0  0  0  0  0  0  0  0  0
   -1.1501    2.7981    0.0000 C   0  0  0  0  0  0  0  0  0  0  0  0
   -0.0393    1.7900    0.0000 C   0  0  0  0  0  0  0  0  0  0  0  0
  1  2  1  0
  2  3  1  0
  3  4  2  0
  4  5  1  0
  5  6  2  0
  6  7  1  0
  7  8  2  0
  8  9  1  0
  9 10  2  0
  4 11  1  0
 11 12  2  0
 12 13  1  0
 13 14  2  0
 14 15  1  0
 15 16  1  0
 16 17  1  0
 17 18  1  0
 18 19  1  0
 18 20  1  0
 14 21  1  0
 21 22  2  0
  3 23  1  0
 23 24  2  0
 24 25  1  0
 25 26  2  0
 26 27  1  0
 27 28  2  0
 10  5  1  0
 22 11  1  0
 28 23  1  0
M  END
> <Identifier>
TAMOXIFENE

> <hERG>
1

$$$$

     RDKit          2D

 29 32  0  0  0  0  0  0  0  0999 V2000
   -5.1614   -2.8865    0.0000 O   0  0  0  0  0  0  0  0  0  0  0  0
   -4.7327   -1.4491    0.0000 C   0  0  0  0  0  0  0  0  0  0  0  0
   -5.7632   -0.3591    0.0000 C   0  0  0  0  0  0  0  0  0  0  0  0
   -5.3345    1.0783    0.0000 C   0  0  0  0  0  0  0  0  0  0  0  0
   -6.3649    2.1683    0.0000 C   0  0  0  0  0  0  0  0  0  0  0  0
   -7.8241    1.8209    0.0000 C   0  0  0  0  0  0  0  0  0  0  0  0
   -8.8546    2.9109    0.0000 F   0  0  0  0  0  0  0  0  0  0  0  0
   -8.2529    0.3835    0.0000 C   0  0  0  0  0  0  0  0  0  0  0  0
   -7.2224   -0.7065    0.0000 C   0  0  0  0  0  0  0  0  0  0  0  0
   -3.2735   -1.1017    0.0000 C   0  0  0  0  0  0  0  0  0  0  0  0
   -2.2430   -2.1917    0.0000 C   0  0  0  0  0  0  0  0  0  0  0  0
   -0.7838   -1.8443    0.0000 C   0  0  0  0  0  0  0  0  0  0  0  0
   -0.3551   -0.4069    0.0000 N   0  0  0  0  0  4  0  0  0  0  0  0
    1.1041   -0.0594    0.0000 C   0  0  0  0  0  0  0  0  0  0  0  0
    2.1346   -1.1495    0.0000 C   0  0  0  0  0  0  0  0  0  0  0  0
    3.5938   -0.8020    0.0000 N   0  0  0  0  0  0  0  0  0  0  0  0
    4.6243   -1.8920    0.0000 C   0  0  0  0  0  0  0  0  0  0  0  0
    4.1956   -3.3295    0.0000 O   0  0  0  0  0  0  0  0  0  0  0  0
    6.0835   -1.5446    0.0000 N   0  0  0  0  0  0  0  0  0  0  0  0
    6.5123   -0.1072    0.0000 C   0  0  0  0  0  0  0  0  0  0  0  0
    7.9715    0.2402    0.0000 C   0  0  0  0  0  0  0  0  0  0  0  0
    8.4002    1.6776    0.0000 C   0  0  0  0  0  0  0  0  0  0  0  0
    7.3697    2.7676    0.0000 C   0  0  0  0  0  0  0  0  0  0  0  0
    5.9105    2.4202    0.0000 C   0  0  0  0  0  0  0  0  0  0  0  0
    5.4818    0.9828    0.0000 C   0  0  0  0  0  0  0  0  0  0  0  0
    4.0226    0.6354    0.0000 C   0  0  0  0  0  0  0  0  0  0  0  0
    2.9921    1.7254    0.0000 O   0  0  0  0  0  0  0  0  0  0  0  0
   -1.3856    0.6831    0.0000 C   0  0  0  0  0  0  0  0  0  0  0  0
   -2.8448    0.3357    0.0000 C   0  0  0  0  0  0  0  0  0  0  0  0
  1  2  2  0
  2  3  1  0
  3  4  2  0
  4  5  1  0
  5  6  2  0
  6  7  1  0
  6  8  1  0
  8  9  2  0
  2 10  1  0
 10 11  1  0
 11 12  1  0
 12 13  1  0
 13 14  1  0
 14 15  1  0
 15 16  1  0
 16 17  1  0
 17 18  2  0
 17 19  1  0
 19 20  1  0
 20 21  2  0
 21 22  1  0
 22 23  2  0
 23 24  1  0
 24 25  2  0
 25 26  1  0
 26 27  2  0
 13 28  1  0
 28 29  1  0
  9  3  1  0
 29 10  1  0
 26 16  1  0
 25 20  1  0
M  CHG  1  13   1
M  END
> <Identifier>
KETANSERIN

> <hERG>
1

$$$$

     RDKit          2D

 27 31  0  0  0  0  0  0  0  0999 V2000
    4.7986    4.2943    0.0000 F   0  0  0  0  0  0  0  0  0  0  0  0
    3.9123    3.0841    0.0000 C   0  0  0  0  0  0  0  0  0  0  0  0
    4.5172    1.7115    0.0000 C   0  0  0  0  0  0  0  0  0  0  0  0
    3.6309    0.5013    0.0000 C   0  0  0  0  0  0  0  0  0  0  0  0
    2.1397    0.6638    0.0000 C   0  0  0  0  0  0  0  0  0  0  0  0
    1.0212   -0.3357    0.0000 C   0  0  0  0  0  0  0  0  0  0  0  0
    1.1723   -1.8280    0.0000 C   0  0  0  0  0  0  0  0  0  0  0  0
   -0.0446   -2.7051    0.0000 C   0  0  0  0  0  0  0  0  0  0  0  0
    0.1066   -4.1975    0.0000 N   0  0  0  0  0  4  0  0  0  0  0  0
    1.4745   -4.8128    0.0000 C   0  0  0  0  0  0  0  0  0  0  0  0
    2.6914   -3.9357    0.0000 C   0  0  0  0  0  0  0  0  0  0  0  0
    2.5403   -2.4434    0.0000 C   0  0  0  0  0  0  0  0  0  0  0  0
    3.7572   -1.5663    0.0000 F   0  0  0  0  0  0  0  0  0  0  0  0
   -0.2750    0.4193    0.0000 C   0  0  0  0  0  0  0  0  0  0  0  0
   -1.6476   -0.1856    0.0000 C   0  0  0  0  0  0  0  0  0  0  0  0
   -1.8101   -1.6768    0.0000 C   0  0  0  0  0  0  0  0  0  0  0  0
   -3.1827   -2.2817    0.0000 C   0  0  0  0  0  0  0  0  0  0  0  0
   -4.3929   -1.3954    0.0000 C   0  0  0  0  0  0  0  0  0  0  0  0
   -4.2304    0.0958    0.0000 C   0  0  0  0  0  0  0  0  0  0  0  0
   -5.4406    0.9821    0.0000 C   0  0  0  0  0  0  0  0  0  0  0  0
   -5.2781    2.4732    0.0000 C   0  0  0  0  0  0  0  0  0  0  0  0
   -3.9055    3.0781    0.0000 C   0  0  0  0  0  0  0  0  0  0  0  0
   -2.6953    2.1918    0.0000 C   0  0  0  0  0  0  0  0  0  0  0  0
   -2.8578    0.7007    0.0000 C   0  0  0  0  0  0  0  0  0  0  0  0
    0.0425    1.8853    0.0000 N   0  0  0  0  0  0  0  0  0  0  0  0
    1.5348    2.0364    0.0000 C   0  0  0  0  0  0  0  0  0  0  0  0
    2.4211    3.2466    0.0000 C   0  0  0  0  0  0  0  0  0  0  0  0
  1  2  1  0
  2  3  2  0
  3  4  1  0
  4  5  2  0
  5  6  1  0
  7  6  1  1
  7  8  1  0
  8  9  1  0
  9 10  1  0
 10 11  1  0
 11 12  1  0
 12 13  1  1
  6 14  2  0
 14 15  1  0
 15 16  2  0
 16 17  1  0
 17 18  2  0
 18 19  1  0
 19 20  2  0
 20 21  1  0
 21 22  2  0
 22 23  1  0
 23 24  2  0
 14 25  1  0
 25 26  1  0
 26 27  2  0
 27  2  1  0
 26  5  1  0
 12  7  1  0
 24 15  1  0
 24 19  1  0
M  CHG  1   9   1
M  END
> <Identifier>
WOMBAT33

> <hERG>
1

$$$$

     RDKit          2D

 41 44  0  0  0  0  0  0  0  0999 V2000
   -8.9140   -2.7175    0.0000 C   0  0  0  0  0  0  0  0  0  0  0  0
   -7.8163   -3.7398    0.0000 C   0  0  0  0  0  0  0  0  0  0  0  0
   -6.7186   -4.7621    0.0000 C   0  0  0  0  0  0  0  0  0  0  0  0
   -8.8386   -4.8375    0.0000 C   0  0  0  0  0  0  0  0  0  0  0  0
   -6.7940   -2.6422    0.0000 O   0  0  0  0  0  0  0  0  0  0  0  0
   -5.3323   -2.9787    0.0000 C   0  0  0  0  0  0  0  0  0  0  0  0
   -4.8928   -4.4128    0.0000 O   0  0  0  0  0  0  0  0  0  0  0  0
   -4.3100   -1.8810    0.0000 N   0  0  0  0  0  0  0  0  0  0  0  0
   -2.8482   -2.2175    0.0000 C   0  0  0  0  0  0  0  0  0  0  0  0
   -1.8259   -1.1198    0.0000 C   0  0  0  0  0  0  0  0  0  0  0  0
   -0.3641   -1.4563    0.0000 C   0  0  0  0  0  0  0  0  0  0  0  0
    0.6582   -0.3586    0.0000 N   0  0  0  0  0  4  0  0  0  0  0  0
    2.1200   -0.6951    0.0000 C   0  0  0  0  0  0  0  0  0  0  0  0
    3.1423    0.4026    0.0000 C   0  0  0  0  0  0  0  0  0  0  0  0
    2.8551    1.8748    0.0000 C   0  0  0  0  0  0  0  0  0  0  0  0
    4.1666    2.6029    0.0000 N   0  0  0  0  0  0  0  0  0  0  0  0
    5.2643    1.5806    0.0000 C   0  0  0  0  0  0  0  0  0  0  0  0
    4.6312    0.2207    0.0000 N   0  0  0  0  0  0  0  0  0  0  0  0
    5.3592   -1.0908    0.0000 C   0  0  0  0  0  0  0  0  0  0  0  0
    6.8590   -1.1160    0.0000 C   0  0  0  0  0  0  0  0  0  0  0  0
    7.5871   -2.4275    0.0000 C   0  0  0  0  0  0  0  0  0  0  0  0
    9.0869   -2.4527    0.0000 C   0  0  0  0  0  0  0  0  0  0  0  0
    9.8586   -1.1664    0.0000 C   0  0  0  0  0  0  0  0  0  0  0  0
   11.3584   -1.1917    0.0000 C   0  0  0  0  0  0  0  0  0  0  0  0
   12.8582   -1.2169    0.0000 N   0  0  0  0  0  0  0  0  0  0  0  0
    9.1306    0.1450    0.0000 C   0  0  0  0  0  0  0  0  0  0  0  0
    7.6308    0.1703    0.0000 C   0  0  0  0  0  0  0  0  0  0  0  0
    0.2187    1.0756    0.0000 C   0  0  0  0  0  0  0  0  0  0  0  0
    1.1207    2.2741    0.0000 C   0  0  0  0  0  0  0  0  0  0  0  0
    0.2595    3.5023    0.0000 C   0  0  0  0  0  0  0  0  0  0  0  0
   -1.1746    3.0628    0.0000 N   0  0  0  0  0  0  0  0  0  0  0  0
   -2.3732    3.9648    0.0000 C   0  0  0  0  0  0  0  0  0  0  0  0
   -3.7536    3.3778    0.0000 C   0  0  0  0  0  0  0  0  0  0  0  0
   -3.9354    1.8889    0.0000 C   0  0  0  0  0  0  0  0  0  0  0  0
   -5.3158    1.3019    0.0000 C   0  0  0  0  0  0  0  0  0  0  0  0
   -6.5143    2.2038    0.0000 C   0  0  0  0  0  0  0  0  0  0  0  0
   -6.3325    3.6928    0.0000 C   0  0  0  0  0  0  0  0  0  0  0  0
   -7.5310    4.5947    0.0000 Cl  0  0  0  0  0  0  0  0  0  0  0  0
   -4.9521    4.2798    0.0000 C   0  0  0  0  0  0  0  0  0  0  0  0
   -1.1999    1.5630    0.0000 C   0  0  0  0  0  0  0  0  0  0  0  0
   -2.4281    0.7019    0.0000 O   0  0  0  0  0  0  0  0  0  0  0  0
  1  2  1  0
  2  3  1  0
  2  4  1  0
  2  5  1  0
  5  6  1  0
  6  7  2  0
  6  8  1  0
  8  9  1  0
  9 10  1  0
 10 11  1  0
 11 12  1  0
 12 13  1  0
 13 14  1  0
 14 15  2  0
 15 16  1  0
 16 17  2  0
 17 18  1  0
 18 19  1  0
 19 20  1  0
 20 21  2  0
 21 22  1  0
 22 23  2  0
 23 24  1  0
 24 25  3  0
 23 26  1  0
 26 27  2  0
 28 12  1  1
 28 29  1  0
 29 30  1  0
 30 31  1  0
 31 32  1  0
 32 33  1  0
 33 34  2  0
 34 35  1  0
 35 36  2  0
 36 37  1  0
 37 38  1  0
 37 39  2  0
 31 40  1  0
 40 41  2  0
 18 14  1  0
 27 20  1  0
 40 28  1  0
 39 33  1  0
M  CHG  1  12   1
M  END
> <Identifier>
WOMBAT60

> <hERG>
1

$$$$

     RDKit          2D

 39 43  0  0  0  0  0  0  0  0999 V2000
   -7.0145   -4.5004    0.0000 C   0  0  0  0  0  0  0  0  0  0  0  0
   -6.5327   -3.0799    0.0000 C   0  0  0  0  0  0  0  0  0  0  0  0
   -5.1003   -2.6347    0.0000 C   0  0  0  0  0  0  0  0  0  0  0  0
   -5.0810   -1.1348    0.0000 N   0  0  0  0  0  0  0  0  0  0  0  0
   -3.8563   -0.2688    0.0000 C   0  0  0  0  0  0  0  0  0  0  0  0
   -2.4939   -0.8964    0.0000 C   0  0  0  0  0  0  0  0  0  0  0  0
   -1.2692   -0.0303    0.0000 C   0  0  0  0  0  0  0  0  0  0  0  0
    0.0932   -0.6580    0.0000 N   0  0  0  0  0  0  0  0  0  0  0  0
    0.2308   -2.1516    0.0000 C   0  0  0  0  0  0  0  0  0  0  0  0
   -0.9939   -3.0177    0.0000 O   0  0  0  0  0  0  0  0  0  0  0  0
    1.5932   -2.7793    0.0000 C   0  0  0  0  0  0  0  0  0  0  0  0
    1.7309   -4.2729    0.0000 C   0  0  0  0  0  0  0  0  0  0  0  0
    3.0933   -4.9006    0.0000 C   0  0  0  0  0  0  0  0  0  0  0  0
    4.3180   -4.0345    0.0000 C   0  0  0  0  0  0  0  0  0  0  0  0
    5.6804   -4.6621    0.0000 C   0  0  0  0  0  0  0  0  0  0  0  0
    4.1803   -2.5408    0.0000 C   0  0  0  0  0  0  0  0  0  0  0  0
    5.4051   -1.6748    0.0000 N   0  0  0  0  0  0  0  0  0  0  0  0
    5.2674   -0.1811    0.0000 C   0  0  0  0  0  0  0  0  0  0  0  0
    6.4921    0.6849    0.0000 N   0  0  0  0  0  0  0  0  0  0  0  0
    6.3545    2.1786    0.0000 C   0  0  0  0  0  0  0  0  0  0  0  0
    4.9921    2.8062    0.0000 C   0  0  0  0  0  0  0  0  0  0  0  0
    3.7674    1.9402    0.0000 C   0  0  0  0  0  0  0  0  0  0  0  0
    2.4050    2.5678    0.0000 C   0  0  0  0  0  0  0  0  0  0  0  0
    2.2673    4.0615    0.0000 C   0  0  0  0  0  0  0  0  0  0  0  0
    0.9050    4.6891    0.0000 C   0  0  0  0  0  0  0  0  0  0  0  0
   -0.3198    3.8230    0.0000 C   0  0  0  0  0  0  0  0  0  0  0  0
   -0.1821    2.3294    0.0000 N   0  0  0  0  0  0  0  0  0  0  0  0
    1.1803    1.7017    0.0000 C   0  0  0  0  0  0  0  0  0  0  0  0
    3.9050    0.4465    0.0000 N   0  0  0  0  0  0  0  0  0  0  0  0
    2.8180   -1.9132    0.0000 C   0  0  0  0  0  0  0  0  0  0  0  0
   -1.4069    1.4633    0.0000 C   0  0  0  0  0  0  0  0  0  0  0  0
   -2.7692    2.0909    0.0000 C   0  0  0  0  0  0  0  0  0  0  0  0
   -2.9069    3.5846    0.0000 C   0  0  0  0  0  0  0  0  0  0  0  0
   -3.0445    5.0783    0.0000 F   0  0  0  0  0  0  0  0  0  0  0  0
   -1.4132    3.7223    0.0000 F   0  0  0  0  0  0  0  0  0  0  0  0
   -4.4006    3.4470    0.0000 F   0  0  0  0  0  0  0  0  0  0  0  0
   -3.9940    1.2249    0.0000 C   0  0  0  0  0  0  0  0  0  0  0  0
   -6.5016   -0.6530    0.0000 C   0  0  0  0  0  0  0  0  0  0  0  0
   -7.3987   -1.8552    0.0000 N   0  0  0  0  0  0  0  0  0  0  0  0
  1  2  1  0
  2  3  2  0
  3  4  1  0
  4  5  1  0
  5  6  2  0
  6  7  1  0
  7  8  1  0
  8  9  1  0
  9 10  2  0
  9 11  1  0
 11 12  2  0
 12 13  1  0
 13 14  2  0
 14 15  1  0
 14 16  1  0
 16 17  1  0
 17 18  1  0
 18 19  2  0
 19 20  1  0
 20 21  2  0
 21 22  1  0
 22 23  1  0
 23 24  2  0
 24 25  1  0
 25 26  2  0
 26 27  1  0
 27 28  2  0
 22 29  2  0
 16 30  2  0
  7 31  2  0
 31 32  1  0
 32 33  1  0
 33 34  1  0
 33 35  1  0
 33 36  1  0
 32 37  2  0
  4 38  1  0
 38 39  2  0
 39  2  1  0
 37  5  1  0
 30 11  1  0
 29 18  1  0
 28 23  1  0
M  END
> <Identifier>
NILOTINIB

> <hERG>
1

$$$$

     RDKit          2D

 22 25  0  0  0  0  0  0  0  0999 V2000
   -3.9657    4.3911    0.0000 C   0  0  0  0  0  0  0  0  0  0  0  0
   -3.5327    2.9549    0.0000 C   0  0  0  0  0  0  0  0  0  0  0  0
   -2.0725    2.6118    0.0000 C   0  0  0  0  0  0  0  0  0  0  0  0
   -1.6395    1.1757    0.0000 N   0  0  0  0  0  4  0  0  0  0  0  0
   -2.6667    0.0826    0.0000 C   0  0  0  0  0  0  0  0  0  0  0  0
   -2.2337   -1.3535    0.0000 C   0  0  0  0  0  0  0  0  0  0  0  0
   -3.2610   -2.4466    0.0000 C   0  0  0  0  0  0  0  0  0  0  0  0
   -4.7212   -2.1035    0.0000 S   0  0  0  0  0  0  0  0  0  0  0  0
   -5.7485   -3.1965    0.0000 C   0  0  0  0  0  0  0  0  0  0  0  0
   -0.7735   -1.6966    0.0000 C   0  0  0  0  0  0  0  0  0  0  0  0
    0.2537   -0.6036    0.0000 C   0  0  0  0  0  0  0  0  0  0  0  0
    1.7140   -0.9467    0.0000 C   0  0  0  0  0  0  0  0  0  0  0  0
    2.1470   -2.3828    0.0000 C   0  0  0  0  0  0  0  0  0  0  0  0
    3.6072   -2.7259    0.0000 C   0  0  0  0  0  0  0  0  0  0  0  0
    4.6344   -1.6329    0.0000 C   0  0  0  0  0  0  0  0  0  0  0  0
    4.2015   -0.1967    0.0000 C   0  0  0  0  0  0  0  0  0  0  0  0
    2.7412    0.1464    0.0000 C   0  0  0  0  0  0  0  0  0  0  0  0
    2.3082    1.5825    0.0000 C   0  0  0  0  0  0  0  0  0  0  0  0
    3.6230    2.3046    0.0000 C   0  0  0  0  0  0  0  0  0  0  0  0
    4.7160    1.2774    0.0000 N   0  0  0  0  0  0  0  0  0  0  0  0
    0.8480    1.9256    0.0000 C   0  0  0  0  0  0  0  0  0  0  0  0
   -0.1792    0.8326    0.0000 C   0  0  0  0  0  0  0  0  0  0  0  0
  1  2  1  0
  2  3  1  0
  3  4  1  0
  4  5  1  0
  5  6  1  0
  6  7  1  1
  7  8  1  0
  8  9  1  0
  6 10  1  0
 11 10  1  6
 11 12  1  0
 12 13  2  0
 13 14  1  0
 14 15  2  0
 15 16  1  0
 16 17  2  0
 17 18  1  0
 18 19  1  0
 19 20  2  0
 18 21  1  1
 22 21  1  6
 22  4  1  0
 22 11  1  0
 17 12  1  0
 20 16  1  0
M  CHG  1   4   1
M  END
> <Identifier>
PERGOLIDE

> <hERG>
1

$$$$

     RDKit          2D

 28 32  0  0  0  0  0  0  0  0999 V2000
   -9.1130   -2.6261    0.0000 O   0  0  0  0  0  0  0  0  0  0  0  0
   -7.9395   -1.6918    0.0000 C   0  0  0  0  0  0  0  0  0  0  0  0
   -6.4939   -2.0920    0.0000 C   0  0  0  0  0  0  0  0  0  0  0  0
   -5.6665   -0.8408    0.0000 C   0  0  0  0  0  0  0  0  0  0  0  0
   -4.1831   -0.6185    0.0000 C   0  0  0  0  0  0  0  0  0  0  0  0
   -3.6340    0.7774    0.0000 C   0  0  0  0  0  0  0  0  0  0  0  0
   -2.1505    0.9997    0.0000 C   0  0  0  0  0  0  0  0  0  0  0  0
   -1.2163   -0.1738    0.0000 C   0  0  0  0  0  0  0  0  0  0  0  0
    0.2672    0.0486    0.0000 N   0  0  0  0  0  4  0  0  0  0  0  0
    1.2014   -1.1249    0.0000 C   0  0  0  0  0  0  0  0  0  0  0  0
    2.6849   -0.9026    0.0000 C   0  0  0  0  0  0  0  0  0  0  0  0
    3.2340    0.4933    0.0000 N   0  0  0  0  0  0  0  0  0  0  0  0
    4.7175    0.7156    0.0000 C   0  0  0  0  0  0  0  0  0  0  0  0
    5.4095    2.0464    0.0000 N   0  0  0  0  0  0  0  0  0  0  0  0
    6.8890    1.7995    0.0000 S   0  0  0  0  0  0  0  0  0  0  0  0
    7.1114    0.3161    0.0000 C   0  0  0  0  0  0  0  0  0  0  0  0
    8.3626   -0.5113    0.0000 C   0  0  0  0  0  0  0  0  0  0  0  0
    8.2716   -2.0085    0.0000 C   0  0  0  0  0  0  0  0  0  0  0  0
    6.9295   -2.6784    0.0000 C   0  0  0  0  0  0  0  0  0  0  0  0
    5.6783   -1.8510    0.0000 C   0  0  0  0  0  0  0  0  0  0  0  0
    5.7693   -0.3538    0.0000 C   0  0  0  0  0  0  0  0  0  0  0  0
    2.2997    1.6668    0.0000 C   0  0  0  0  0  0  0  0  0  0  0  0
    0.8163    1.4444    0.0000 C   0  0  0  0  0  0  0  0  0  0  0  0
   -4.5682    1.9509    0.0000 C   0  0  0  0  0  0  0  0  0  0  0  0
   -4.0191    3.3468    0.0000 Cl  0  0  0  0  0  0  0  0  0  0  0  0
   -6.0517    1.7285    0.0000 C   0  0  0  0  0  0  0  0  0  0  0  0
   -6.6008    0.3327    0.0000 C   0  0  0  0  0  0  0  0  0  0  0  0
   -8.0056   -0.1932    0.0000 N   0  0  0  0  0  0  0  0  0  0  0  0
  1  2  2  0
  2  3  1  0
  3  4  1  0
  4  5  2  0
  5  6  1  0
  6  7  1  0
  7  8  1  0
  8  9  1  0
  9 10  1  0
 10 11  1  0
 11 12  1  0
 12 13  1  0
 13 14  2  0
 14 15  1  0
 15 16  1  0
 16 17  2  0
 17 18  1  0
 18 19  2  0
 19 20  1  0
 20 21  2  0
 12 22  1  0
 22 23  1  0
  6 24  2  0
 24 25  1  0
 24 26  1  0
 26 27  2  0
 27 28  1  0
 28  2  1  0
 27  4  1  0
 23  9  1  0
 21 13  1  0
 21 16  1  0
M  CHG  1   9   1
M  END
> <Identifier>
ZIPRASIDONE

> <hERG>
1

$$$$

     RDKit          2D

 35 39  0  0  0  0  0  0  0  0999 V2000
   11.2690    2.0677    0.0000 C   0  0  0  0  0  0  0  0  0  0  0  0
    9.9617    2.8032    0.0000 O   0  0  0  0  0  0  0  0  0  0  0  0
    8.6711    2.0388    0.0000 C   0  0  0  0  0  0  0  0  0  0  0  0
    8.6878    0.5389    0.0000 O   0  0  0  0  0  0  0  0  0  0  0  0
    7.3638    2.7743    0.0000 C   0  0  0  0  0  0  0  0  0  0  0  0
    6.0732    2.0099    0.0000 C   0  0  0  0  0  0  0  0  0  0  0  0
    6.0899    0.5099    0.0000 C   0  0  0  0  0  0  0  0  0  0  0  0
    4.7993   -0.2545    0.0000 C   0  0  0  0  0  0  0  0  0  0  0  0
    3.4920    0.4810    0.0000 C   0  0  0  0  0  0  0  0  0  0  0  0
    2.2014   -0.2834    0.0000 N   0  0  0  0  0  0  0  0  0  0  0  0
    0.8243    0.3114    0.0000 C   0  0  0  0  0  0  0  0  0  0  0  0
   -0.1669   -0.8144    0.0000 C   0  0  0  0  0  0  0  0  0  0  0  0
   -1.6603   -0.6743    0.0000 C   0  0  0  0  0  0  0  0  0  0  0  0
   -2.2857    0.6892    0.0000 C   0  0  0  0  0  0  0  0  0  0  0  0
   -3.7791    0.8293    0.0000 C   0  0  0  0  0  0  0  0  0  0  0  0
   -4.6472   -0.3939    0.0000 N   0  0  0  0  0  0  0  0  0  0  0  0
   -6.1406   -0.2538    0.0000 C   0  0  0  0  0  0  0  0  0  0  0  0
   -6.7660    1.1097    0.0000 C   0  0  0  0  0  0  0  0  0  0  0  0
   -8.2594    1.2498    0.0000 N   0  0  0  0  0  0  0  0  0  0  0  0
   -9.2506    0.1240    0.0000 C   0  0  0  0  0  0  0  0  0  0  0  0
  -10.6277    0.7188    0.0000 C   0  0  0  0  0  0  0  0  0  0  0  0
  -10.4875    2.2122    0.0000 N   0  0  0  0  0  0  0  0  0  0  0  0
   -9.0238    2.5404    0.0000 C   0  0  0  0  0  0  0  0  0  0  0  0
   -8.4290    3.9175    0.0000 O   0  0  0  0  0  0  0  0  0  0  0  0
   -4.0219   -1.7574    0.0000 C   0  0  0  0  0  0  0  0  0  0  0  0
   -2.5284   -1.8975    0.0000 C   0  0  0  0  0  0  0  0  0  0  0  0
    0.5975   -2.1050    0.0000 C   0  0  0  0  0  0  0  0  0  0  0  0
    0.1499   -3.5367    0.0000 C   0  0  0  0  0  0  0  0  0  0  0  0
    1.1660   -4.6402    0.0000 C   0  0  0  0  0  0  0  0  0  0  0  0
    0.7184   -6.0718    0.0000 Cl  0  0  0  0  0  0  0  0  0  0  0  0
    2.6296   -4.3120    0.0000 C   0  0  0  0  0  0  0  0  0  0  0  0
    3.0772   -2.8803    0.0000 C   0  0  0  0  0  0  0  0  0  0  0  0
    2.0612   -1.7769    0.0000 C   0  0  0  0  0  0  0  0  0  0  0  0
    3.4752    1.9809    0.0000 C   0  0  0  0  0  0  0  0  0  0  0  0
    4.7658    2.7453    0.0000 C   0  0  0  0  0  0  0  0  0  0  0  0
  1  2  1  0
  2  3  1  0
  3  4  2  0
  3  5  1  0
  5  6  1  0
  6  7  2  0
  7  8  1  0
  8  9  2  0
  9 10  1  0
 10 11  1  0
 11 12  2  0
 12 13  1  0
 13 14  1  0
 14 15  1  0
 15 16  1  0
 16 17  1  0
 17 18  1  0
 18 19  1  0
 19 20  1  0
 20 21  1  0
 21 22  1  0
 22 23  1  0
 23 24  2  0
 16 25  1  0
 25 26  1  0
 12 27  1  0
 27 28  2  0
 28 29  1  0
 29 30  1  0
 29 31  2  0
 31 32  1  0
 32 33  2  0
  9 34  1  0
 34 35  2  0
 35  6  1  0
 33 10  1  0
 26 13  1  0
 33 27  1  0
 23 19  1  0
M  END
> <Identifier>
BMCL20031829_07

> <hERG>
1

$$$$

     RDKit          2D

 33 34  0  0  0  0  0  0  0  0999 V2000
    8.7832   -3.4431    0.0000 C   0  0  0  0  0  0  0  0  0  0  0  0
    8.5749   -1.9576    0.0000 O   0  0  0  0  0  0  0  0  0  0  0  0
    7.1843   -1.3953    0.0000 C   0  0  0  0  0  0  0  0  0  0  0  0
    6.0020   -2.3184    0.0000 C   0  0  0  0  0  0  0  0  0  0  0  0
    4.6114   -1.7561    0.0000 C   0  0  0  0  0  0  0  0  0  0  0  0
    4.4031   -0.2706    0.0000 C   0  0  0  0  0  0  0  0  0  0  0  0
    3.0125    0.2917    0.0000 C   0  0  0  0  0  0  0  0  0  0  0  0
    2.8042    1.7771    0.0000 C   0  0  0  0  0  0  0  0  0  0  0  0
    1.4136    2.3395    0.0000 N   0  0  0  0  0  4  0  0  0  0  0  0
    1.2052    3.8249    0.0000 C   0  0  0  0  0  0  0  0  0  0  0  0
    0.2313    1.4163    0.0000 C   0  0  0  0  0  0  0  0  0  0  0  0
   -1.1593    1.9786    0.0000 C   0  0  0  0  0  0  0  0  0  0  0  0
   -2.3416    1.0555    0.0000 C   0  0  0  0  0  0  0  0  0  0  0  0
   -3.7322    1.6178    0.0000 C   0  0  0  0  0  0  0  0  0  0  0  0
   -3.1699    3.0084    0.0000 C   0  0  0  0  0  0  0  0  0  0  0  0
   -2.6076    4.3990    0.0000 N   0  0  0  0  0  0  0  0  0  0  0  0
   -4.2946    0.2272    0.0000 C   0  0  0  0  0  0  0  0  0  0  0  0
   -5.7800    0.0189    0.0000 C   0  0  0  0  0  0  0  0  0  0  0  0
   -6.3423   -1.3717    0.0000 C   0  0  0  0  0  0  0  0  0  0  0  0
   -5.4192   -2.5540    0.0000 C   0  0  0  0  0  0  0  0  0  0  0  0
   -5.9815   -3.9446    0.0000 O   0  0  0  0  0  0  0  0  0  0  0  0
   -7.4670   -4.1529    0.0000 C   0  0  0  0  0  0  0  0  0  0  0  0
   -3.9337   -2.3457    0.0000 C   0  0  0  0  0  0  0  0  0  0  0  0
   -3.0106   -3.5280    0.0000 O   0  0  0  0  0  0  0  0  0  0  0  0
   -1.5251   -3.3196    0.0000 C   0  0  0  0  0  0  0  0  0  0  0  0
   -3.3714   -0.9551    0.0000 C   0  0  0  0  0  0  0  0  0  0  0  0
   -5.1228    2.1802    0.0000 C   0  0  0  0  0  0  0  0  0  0  0  0
   -5.3312    3.6656    0.0000 C   0  0  0  0  0  0  0  0  0  0  0  0
   -6.3051    1.2570    0.0000 C   0  0  0  0  0  0  0  0  0  0  0  0
    5.5854    0.6525    0.0000 C   0  0  0  0  0  0  0  0  0  0  0  0
    6.9760    0.0902    0.0000 C   0  0  0  0  0  0  0  0  0  0  0  0
    8.1583    1.0133    0.0000 O   0  0  0  0  0  0  0  0  0  0  0  0
    7.9500    2.4988    0.0000 C   0  0  0  0  0  0  0  0  0  0  0  0
  1  2  1  0
  2  3  1  0
  3  4  2  0
  4  5  1  0
  5  6  2  0
  6  7  1  0
  7  8  1  0
  8  9  1  0
  9 10  1  0
  9 11  1  0
 11 12  1  0
 12 13  1  0
 14 13  1  1
 14 15  1  0
 15 16  3  0
 14 17  1  0
 17 18  2  0
 18 19  1  0
 19 20  2  0
 20 21  1  0
 21 22  1  0
 20 23  1  0
 23 24  1  0
 24 25  1  0
 23 26  2  0
 14 27  1  0
 27 28  1  0
 27 29  1  0
  6 30  1  0
 30 31  2  0
 31 32  1  0
 32 33  1  0
 31  3  1  0
 26 17  1  0
M  CHG  1   9   1
M  END
> <Identifier>
VERAPAMIL

> <hERG>
1

$$$$

     RDKit          2D

 30 34  0  0  0  0  0  0  0  0999 V2000
   -7.7842    2.1078    0.0000 O   0  0  0  0  0  0  0  0  0  0  0  0
   -7.9780    0.6204    0.0000 C   0  0  0  0  0  0  0  0  0  0  0  0
   -9.2952   -0.0971    0.0000 N   0  0  0  0  0  0  0  0  0  0  0  0
   -9.0199   -1.5716    0.0000 C   0  0  0  0  0  0  0  0  0  0  0  0
   -7.5324   -1.7654    0.0000 C   0  0  0  0  0  0  0  0  0  0  0  0
   -6.8885   -0.4107    0.0000 N   0  0  0  0  0  0  0  0  0  0  0  0
   -5.4140   -0.1353    0.0000 C   0  0  0  0  0  0  0  0  0  0  0  0
   -4.4383   -1.2746    0.0000 C   0  0  0  0  0  0  0  0  0  0  0  0
   -2.9638   -0.9992    0.0000 N   0  0  0  0  0  0  0  0  0  0  0  0
   -1.9880   -2.1385    0.0000 C   0  0  0  0  0  0  0  0  0  0  0  0
   -0.5135   -1.8631    0.0000 C   0  0  0  0  0  0  0  0  0  0  0  0
   -0.0147   -0.4485    0.0000 C   0  0  0  0  0  0  0  0  0  0  0  0
    1.4598   -0.1731    0.0000 C   0  0  0  0  0  0  0  0  0  0  0  0
    2.5492   -1.2042    0.0000 C   0  0  0  0  0  0  0  0  0  0  0  0
    3.8665   -0.4866    0.0000 N   0  0  0  0  0  0  0  0  0  0  0  0
    5.2212   -1.1306    0.0000 C   0  0  0  0  0  0  0  0  0  0  0  0
    5.3410   -2.6258    0.0000 C   0  0  0  0  0  0  0  0  0  0  0  0
    6.6957   -3.2697    0.0000 C   0  0  0  0  0  0  0  0  0  0  0  0
    7.9307   -2.4184    0.0000 C   0  0  0  0  0  0  0  0  0  0  0  0
    7.8110   -0.9232    0.0000 C   0  0  0  0  0  0  0  0  0  0  0  0
    6.4563   -0.2793    0.0000 C   0  0  0  0  0  0  0  0  0  0  0  0
    3.5911    0.9879    0.0000 C   0  0  0  0  0  0  0  0  0  0  0  0
    4.5026    2.1791    0.0000 C   0  0  0  0  0  0  0  0  0  0  0  0
    3.9267    3.5642    0.0000 C   0  0  0  0  0  0  0  0  0  0  0  0
    2.4393    3.7579    0.0000 C   0  0  0  0  0  0  0  0  0  0  0  0
    1.8634    5.1430    0.0000 Cl  0  0  0  0  0  0  0  0  0  0  0  0
    1.5278    2.5667    0.0000 C   0  0  0  0  0  0  0  0  0  0  0  0
    2.1037    1.1816    0.0000 C   0  0  0  0  0  0  0  0  0  0  0  0
   -0.9905    0.6908    0.0000 C   0  0  0  0  0  0  0  0  0  0  0  0
   -2.4650    0.4154    0.0000 C   0  0  0  0  0  0  0  0  0  0  0  0
  1  2  2  0
  2  3  1  0
  3  4  1  0
  4  5  1  0
  5  6  1  0
  6  7  1  0
  7  8  1  0
  8  9  1  0
  9 10  1  0
 10 11  1  0
 11 12  1  0
 12 13  1  0
 13 14  2  0
 14 15  1  0
 15 16  1  0
 16 17  1  0
 17 18  1  0
 18 19  1  0
 19 20  1  0
 20 21  1  0
 15 22  1  0
 22 23  2  0
 23 24  1  0
 24 25  2  0
 25 26  1  0
 25 27  1  0
 27 28  2  0
 12 29  1  0
 29 30  1  0
  6  2  1  0
 30  9  1  0
 28 13  1  0
 21 16  1  0
 28 22  1  0
M  END
> <Identifier>
BMCL20031829_06

> <hERG>
1

$$$$

     RDKit          2D

 31 35  0  0  0  0  0  0  0  0999 V2000
    2.8788    2.3943    0.0000 C   0  0  0  0  0  0  0  0  0  0  0  0
    3.9445    1.3388    0.0000 C   0  0  0  0  0  0  0  0  0  0  0  0
    5.3915    1.7340    0.0000 N   0  0  0  0  0  0  0  0  0  0  0  0
    6.4573    0.6785    0.0000 C   0  0  0  0  0  0  0  0  0  0  0  0
    6.0760   -0.7723    0.0000 N   0  0  0  0  0  4  0  0  0  0  0  0
    7.1418   -1.8278    0.0000 C   0  0  0  0  0  0  0  0  0  0  0  0
    8.5888   -1.4326    0.0000 C   0  0  0  0  0  0  0  0  0  0  0  0
    8.9700    0.0181    0.0000 C   0  0  0  0  0  0  0  0  0  0  0  0
    7.9043    1.0737    0.0000 C   0  0  0  0  0  0  0  0  0  0  0  0
    8.2855    2.5244    0.0000 O   0  0  0  0  0  0  0  0  0  0  0  0
    4.6290   -1.1675    0.0000 C   0  0  0  0  0  0  0  0  0  0  0  0
    4.2478   -2.6182    0.0000 O   0  0  0  0  0  0  0  0  0  0  0  0
    3.5633   -0.1120    0.0000 C   0  0  0  0  0  0  0  0  0  0  0  0
    2.1163   -0.5072    0.0000 C   0  0  0  0  0  0  0  0  0  0  0  0
    1.0505    0.5484    0.0000 C   0  0  0  0  0  0  0  0  0  0  0  0
   -0.3965    0.1532    0.0000 N   0  0  0  0  0  4  0  0  0  0  0  0
   -1.4622    1.2087    0.0000 C   0  0  0  0  0  0  0  0  0  0  0  0
   -2.9092    0.8135    0.0000 C   0  0  0  0  0  0  0  0  0  0  0  0
   -3.2905   -0.6373    0.0000 C   0  0  0  0  0  0  0  0  0  0  0  0
   -4.7375   -1.0325    0.0000 C   0  0  0  0  0  0  0  0  0  0  0  0
   -5.2683   -2.4354    0.0000 N   0  0  0  0  0  0  0  0  0  0  0  0
   -6.7666   -2.3642    0.0000 O   0  0  0  0  0  0  0  0  0  0  0  0
   -7.1618   -0.9172    0.0000 C   0  0  0  0  0  0  0  0  0  0  0  0
   -8.5016   -0.2426    0.0000 C   0  0  0  0  0  0  0  0  0  0  0  0
   -8.5873    1.2549    0.0000 C   0  0  0  0  0  0  0  0  0  0  0  0
   -9.9271    1.9295    0.0000 F   0  0  0  0  0  0  0  0  0  0  0  0
   -7.3332    2.0779    0.0000 C   0  0  0  0  0  0  0  0  0  0  0  0
   -5.9935    1.4034    0.0000 C   0  0  0  0  0  0  0  0  0  0  0  0
   -5.9077   -0.0941    0.0000 C   0  0  0  0  0  0  0  0  0  0  0  0
   -2.2247   -1.6928    0.0000 C   0  0  0  0  0  0  0  0  0  0  0  0
   -0.7777   -1.2976    0.0000 C   0  0  0  0  0  0  0  0  0  0  0  0
  1  2  1  0
  2  3  2  0
  3  4  1  0
  4  5  2  0
  5  6  1  0
  6  7  1  0
  7  8  1  0
  8  9  1  0
  9 10  1  6
  5 11  1  0
 11 12  2  0
 11 13  1  0
 13 14  1  6
 14 15  1  0
 15 16  1  0
 16 17  1  0
 17 18  1  0
 18 19  1  0
 19 20  1  0
 20 21  2  0
 21 22  1  0
 22 23  1  0
 23 24  2  0
 24 25  1  0
 25 26  1  0
 25 27  2  0
 27 28  1  0
 28 29  2  0
 19 30  1  0
 30 31  1  0
 13  2  1  0
 31 16  1  0
  9  4  1  0
 29 20  1  0
 29 23  1  0
M  CHG  2   5   1  16   1
M  END
> <Identifier>
9-HYDROXYRISPERIDONE

> <hERG>
1

$$$$

     RDKit          2D

 29 32  0  0  0  0  0  0  0  0999 V2000
   -1.3240   -5.7090    0.0000 N   0  0  0  0  0  0  0  0  0  0  0  0
   -2.1787   -4.4764    0.0000 C   0  0  0  0  0  0  0  0  0  0  0  0
   -3.0335   -3.2437    0.0000 C   0  0  0  0  0  0  0  0  0  0  0  0
   -4.5284   -3.3677    0.0000 C   0  0  0  0  0  0  0  0  0  0  0  0
   -5.3831   -2.1350    0.0000 C   0  0  0  0  0  0  0  0  0  0  0  0
   -4.7430   -0.7785    0.0000 C   0  0  0  0  0  0  0  0  0  0  0  0
   -5.5978    0.4542    0.0000 C   0  0  0  0  0  0  0  0  0  0  0  0
   -4.9577    1.8107    0.0000 N   0  0  0  0  0  0  0  0  0  0  0  0
   -5.6789    3.1259    0.0000 C   0  0  0  0  0  0  0  0  0  0  0  0
   -4.6509    4.2183    0.0000 N   0  0  0  0  0  0  0  0  0  0  0  0
   -3.2944    3.5782    0.0000 C   0  0  0  0  0  0  0  0  0  0  0  0
   -3.4840    2.0902    0.0000 C   0  0  0  0  0  0  0  0  0  0  0  0
   -2.3916    1.0623    0.0000 C   0  0  0  0  0  0  0  0  0  0  0  0
   -0.9552    1.4943    0.0000 C   0  0  0  0  0  0  0  0  0  0  0  0
    0.1372    0.4663    0.0000 N   0  0  0  0  0  4  0  0  0  0  0  0
    1.5737    0.8983    0.0000 C   0  0  0  0  0  0  0  0  0  0  0  0
    2.0685    2.3144    0.0000 C   0  0  0  0  0  0  0  0  0  0  0  0
    3.5681    2.2814    0.0000 C   0  0  0  0  0  0  0  0  0  0  0  0
    4.0001    0.8449    0.0000 N   0  0  0  0  0  0  0  0  0  0  0  0
    5.4162    0.3501    0.0000 C   0  0  0  0  0  0  0  0  0  0  0  0
    5.6957   -1.1236    0.0000 C   0  0  0  0  0  0  0  0  0  0  0  0
    7.1117   -1.6184    0.0000 C   0  0  0  0  0  0  0  0  0  0  0  0
    8.2482   -0.6395    0.0000 C   0  0  0  0  0  0  0  0  0  0  0  0
    7.9687    0.8342    0.0000 C   0  0  0  0  0  0  0  0  0  0  0  0
    6.5527    1.3290    0.0000 C   0  0  0  0  0  0  0  0  0  0  0  0
    2.7675   -0.0098    0.0000 C   0  0  0  0  0  0  0  0  0  0  0  0
    2.7345   -1.5095    0.0000 O   0  0  0  0  0  0  0  0  0  0  0  0
   -3.2482   -0.6545    0.0000 C   0  0  0  0  0  0  0  0  0  0  0  0
   -2.3934   -1.8872    0.0000 C   0  0  0  0  0  0  0  0  0  0  0  0
  1  2  3  0
  2  3  1  0
  3  4  2  0
  4  5  1  0
  5  6  2  0
  6  7  1  0
  7  8  1  0
  8  9  1  0
  9 10  2  0
 10 11  1  0
 11 12  2  0
 12 13  1  0
 13 14  1  0
 14 15  1  0
 16 15  1  1
 16 17  1  0
 17 18  1  0
 18 19  1  0
 19 20  1  0
 20 21  2  0
 21 22  1  0
 22 23  2  0
 23 24  1  0
 24 25  2  0
 19 26  1  0
 26 27  2  0
  6 28  1  0
 28 29  2  0
 29  3  1  0
 12  8  1  0
 26 16  1  0
 25 20  1  0
M  CHG  1  15   1
M  END
> <Identifier>
WOMBAT26

> <hERG>
1

$$$$

     RDKit          2D

 30 34  0  0  0  0  0  0  0  0999 V2000
   -7.2091    3.1436    0.0000 O   0  0  0  0  0  0  0  0  0  0  0  0
   -6.8304    1.6922    0.0000 C   0  0  0  0  0  0  0  0  0  0  0  0
   -7.7820    0.5327    0.0000 N   0  0  0  0  0  0  0  0  0  0  0  0
   -6.9733   -0.7307    0.0000 C   0  0  0  0  0  0  0  0  0  0  0  0
   -7.3710   -2.1770    0.0000 C   0  0  0  0  0  0  0  0  0  0  0  0
   -6.3173   -3.2446    0.0000 C   0  0  0  0  0  0  0  0  0  0  0  0
   -4.8659   -2.8659    0.0000 C   0  0  0  0  0  0  0  0  0  0  0  0
   -4.4682   -1.4195    0.0000 C   0  0  0  0  0  0  0  0  0  0  0  0
   -5.5219   -0.3519    0.0000 C   0  0  0  0  0  0  0  0  0  0  0  0
   -5.4336    1.1455    0.0000 N   0  0  0  0  0  4  0  0  0  0  0  0
   -4.1702    1.9541    0.0000 C   0  0  0  0  0  0  0  0  0  0  0  0
   -2.8382    1.2644    0.0000 C   0  0  0  0  0  0  0  0  0  0  0  0
   -1.5749    2.0731    0.0000 C   0  0  0  0  0  0  0  0  0  0  0  0
   -0.2429    1.3834    0.0000 N   0  0  0  0  0  4  0  0  0  0  0  0
   -0.1742   -0.1151    0.0000 C   0  0  0  0  0  0  0  0  0  0  0  0
    1.1578   -0.8048    0.0000 C   0  0  0  0  0  0  0  0  0  0  0  0
    2.4212    0.0039    0.0000 C   0  0  0  0  0  0  0  0  0  0  0  0
    3.7532   -0.6859    0.0000 N   0  0  0  0  0  4  0  0  0  0  0  0
    5.0941   -0.0137    0.0000 C   0  0  0  0  0  0  0  0  0  0  0  0
    5.4918    1.4327    0.0000 C   0  0  0  0  0  0  0  0  0  0  0  0
    6.9432    1.8114    0.0000 C   0  0  0  0  0  0  0  0  0  0  0  0
    7.9969    0.7438    0.0000 C   0  0  0  0  0  0  0  0  0  0  0  0
    9.4483    1.1225    0.0000 Cl  0  0  0  0  0  0  0  0  0  0  0  0
    7.5992   -0.7025    0.0000 C   0  0  0  0  0  0  0  0  0  0  0  0
    6.1478   -1.0812    0.0000 C   0  0  0  0  0  0  0  0  0  0  0  0
    5.4581   -2.4133    0.0000 N   0  0  0  0  0  0  0  0  0  0  0  0
    3.9781   -2.1689    0.0000 C   0  0  0  0  0  0  0  0  0  0  0  0
    2.9105   -3.2226    0.0000 O   0  0  0  0  0  0  0  0  0  0  0  0
    2.3525    1.5023    0.0000 C   0  0  0  0  0  0  0  0  0  0  0  0
    1.0205    2.1920    0.0000 C   0  0  0  0  0  0  0  0  0  0  0  0
  1  2  2  0
  2  3  1  0
  3  4  2  0
  4  5  1  0
  5  6  2  0
  6  7  1  0
  7  8  2  0
  8  9  1  0
  9 10  2  0
 10 11  1  0
 11 12  1  0
 12 13  1  0
 13 14  1  0
 14 15  1  0
 15 16  1  0
 16 17  1  0
 17 18  1  0
 18 19  2  0
 19 20  1  0
 20 21  2  0
 21 22  1  0
 22 23  1  0
 22 24  2  0
 24 25  1  0
 25 26  2  0
 26 27  1  0
 27 28  2  0
 17 29  1  0
 29 30  1  0
 10  2  1  0
 30 14  1  0
  9  4  1  0
 27 18  1  0
 25 19  1  0
M  CHG  3  10   1  14   1  18   1
M  END
> <Identifier>
DOMPERIDONE

> <hERG>
1

$$$$

     RDKit          2D

 30 34  0  0  0  0  0  0  0  0999 V2000
    3.0971    2.5503    0.0000 C   0  0  0  0  0  0  0  0  0  0  0  0
    4.1869    1.5196    0.0000 C   0  0  0  0  0  0  0  0  0  0  0  0
    5.6244    1.9480    0.0000 N   0  0  0  0  0  0  0  0  0  0  0  0
    6.7141    0.9172    0.0000 C   0  0  0  0  0  0  0  0  0  0  0  0
    6.3664   -0.5419    0.0000 N   0  0  0  0  0  4  0  0  0  0  0  0
    7.4561   -1.5727    0.0000 C   0  0  0  0  0  0  0  0  0  0  0  0
    8.8936   -1.1443    0.0000 C   0  0  0  0  0  0  0  0  0  0  0  0
    9.2414    0.3148    0.0000 C   0  0  0  0  0  0  0  0  0  0  0  0
    8.1517    1.3456    0.0000 C   0  0  0  0  0  0  0  0  0  0  0  0
    4.9288   -0.9703    0.0000 C   0  0  0  0  0  0  0  0  0  0  0  0
    4.5810   -2.4294    0.0000 O   0  0  0  0  0  0  0  0  0  0  0  0
    3.8391    0.0605    0.0000 C   0  0  0  0  0  0  0  0  0  0  0  0
    2.4016   -0.3679    0.0000 C   0  0  0  0  0  0  0  0  0  0  0  0
    1.3118    0.6628    0.0000 C   0  0  0  0  0  0  0  0  0  0  0  0
   -0.1257    0.2345    0.0000 N   0  0  0  0  0  4  0  0  0  0  0  0
   -1.2155    1.2652    0.0000 C   0  0  0  0  0  0  0  0  0  0  0  0
   -2.6530    0.8368    0.0000 C   0  0  0  0  0  0  0  0  0  0  0  0
   -3.0008   -0.6223    0.0000 C   0  0  0  0  0  0  0  0  0  0  0  0
   -4.4383   -1.0506    0.0000 C   0  0  0  0  0  0  0  0  0  0  0  0
   -4.9367   -2.4654    0.0000 N   0  0  0  0  0  0  0  0  0  0  0  0
   -6.4363   -2.4286    0.0000 O   0  0  0  0  0  0  0  0  0  0  0  0
   -6.8646   -0.9911    0.0000 C   0  0  0  0  0  0  0  0  0  0  0  0
   -8.2196   -0.3475    0.0000 C   0  0  0  0  0  0  0  0  0  0  0  0
   -8.3397    1.1477    0.0000 C   0  0  0  0  0  0  0  0  0  0  0  0
   -9.6946    1.7912    0.0000 F   0  0  0  0  0  0  0  0  0  0  0  0
   -7.1049    1.9993    0.0000 C   0  0  0  0  0  0  0  0  0  0  0  0
   -5.7500    1.3557    0.0000 C   0  0  0  0  0  0  0  0  0  0  0  0
   -5.6298   -0.1395    0.0000 C   0  0  0  0  0  0  0  0  0  0  0  0
   -1.9110   -1.6530    0.0000 C   0  0  0  0  0  0  0  0  0  0  0  0
   -0.4735   -1.2247    0.0000 C   0  0  0  0  0  0  0  0  0  0  0  0
  1  2  1  0
  2  3  2  0
  3  4  1  0
  4  5  2  0
  5  6  1  0
  6  7  1  0
  7  8  1  0
  8  9  1  0
  5 10  1  0
 10 11  2  0
 10 12  1  0
 12 13  1  6
 13 14  1  0
 14 15  1  0
 15 16  1  0
 16 17  1  0
 17 18  1  0
 18 19  1  0
 19 20  2  0
 20 21  1  0
 21 22  1  0
 22 23  2  0
 23 24  1  0
 24 25  1  0
 24 26  2  0
 26 27  1  0
 27 28  2  0
 18 29  1  0
 29 30  1  0
 12  2  1  0
 30 15  1  0
  9  4  1  0
 28 19  1  0
 28 22  1  0
M  CHG  2   5   1  15   1
M  END
> <Identifier>
RISPERIDONE

> <hERG>
1

$$$$

     RDKit          2D

 29 31  0  0  0  0  0  0  0  0999 V2000
   -9.2141    0.1428    0.0000 C   0  0  0  0  0  0  0  0  0  0  0  0
   -8.0370   -0.7870    0.0000 C   0  0  0  0  0  0  0  0  0  0  0  0
   -6.6432   -0.2325    0.0000 N   0  0  0  0  0  4  0  0  0  0  0  0
   -6.4266    1.2518    0.0000 C   0  0  0  0  0  0  0  0  0  0  0  0
   -7.6036    2.1816    0.0000 C   0  0  0  0  0  0  0  0  0  0  0  0
   -5.4662   -1.1623    0.0000 C   0  0  0  0  0  0  0  0  0  0  0  0
   -4.0724   -0.6078    0.0000 C   0  0  0  0  0  0  0  0  0  0  0  0
   -2.8953   -1.5376    0.0000 O   0  0  0  0  0  0  0  0  0  0  0  0
   -1.5016   -0.9831    0.0000 C   0  0  0  0  0  0  0  0  0  0  0  0
   -1.2849    0.5012    0.0000 C   0  0  0  0  0  0  0  0  0  0  0  0
    0.1088    1.0557    0.0000 C   0  0  0  0  0  0  0  0  0  0  0  0
    1.2859    0.1259    0.0000 C   0  0  0  0  0  0  0  0  0  0  0  0
    2.6797    0.6804    0.0000 C   0  0  0  0  0  0  0  0  0  0  0  0
    3.8567   -0.2494    0.0000 C   0  0  0  0  0  0  0  0  0  0  0  0
    5.2505    0.3051    0.0000 Cl  0  0  0  0  0  0  0  0  0  0  0  0
    3.6401   -1.7336    0.0000 C   0  0  0  0  0  0  0  0  0  0  0  0
    2.2463   -2.2881    0.0000 C   0  0  0  0  0  0  0  0  0  0  0  0
    2.0296   -3.7724    0.0000 C   0  0  0  0  0  0  0  0  0  0  0  0
    3.2067   -4.7022    0.0000 C   0  0  0  0  0  0  0  0  0  0  0  0
    4.6005   -4.1477    0.0000 C   0  0  0  0  0  0  0  0  0  0  0  0
    4.8172   -2.6634    0.0000 C   0  0  0  0  0  0  0  0  0  0  0  0
    2.8963    2.1647    0.0000 C   0  0  0  0  0  0  0  0  0  0  0  0
    4.2901    2.7192    0.0000 C   0  0  0  0  0  0  0  0  0  0  0  0
    4.5068    4.2034    0.0000 C   0  0  0  0  0  0  0  0  0  0  0  0
    3.3297    5.1332    0.0000 C   0  0  0  0  0  0  0  0  0  0  0  0
    1.9359    4.5787    0.0000 C   0  0  0  0  0  0  0  0  0  0  0  0
    1.7193    3.0945    0.0000 C   0  0  0  0  0  0  0  0  0  0  0  0
    1.0692   -1.3584    0.0000 C   0  0  0  0  0  0  0  0  0  0  0  0
   -0.3245   -1.9128    0.0000 C   0  0  0  0  0  0  0  0  0  0  0  0
  1  2  1  0
  2  3  1  0
  3  4  1  0
  4  5  1  0
  3  6  1  0
  6  7  1  0
  7  8  1  0
  8  9  1  0
  9 10  2  0
 10 11  1  0
 11 12  2  0
 12 13  1  0
 13 14  2  0
 14 15  1  0
 14 16  1  0
 16 17  2  0
 17 18  1  0
 18 19  2  0
 19 20  1  0
 20 21  2  0
 13 22  1  0
 22 23  2  0
 23 24  1  0
 24 25  2  0
 25 26  1  0
 26 27  2  0
 12 28  1  0
 28 29  2  0
 29  9  1  0
 21 16  1  0
 27 22  1  0
M  CHG  1   3   1
M  END
> <Identifier>
CLOMIPHENE

> <hERG>
1

$$$$

     RDKit          2D

 22 25  0  0  0  0  0  0  0  0999 V2000
   -1.2626   -4.9000    0.0000 C   0  0  0  0  0  0  0  0  0  0  0  0
   -0.5215   -3.5958    0.0000 C   0  0  0  0  0  0  0  0  0  0  0  0
   -1.1409   -2.2297    0.0000 C   0  0  0  0  0  0  0  0  0  0  0  0
   -0.0331   -1.2184    0.0000 C   0  0  0  0  0  0  0  0  0  0  0  0
    1.2710   -1.9595    0.0000 C   0  0  0  0  0  0  0  0  0  0  0  0
    0.9692   -3.4288    0.0000 S   0  0  0  0  0  0  0  0  0  0  0  0
    2.6636   -1.4020    0.0000 N   0  0  0  0  0  0  0  0  0  0  0  0
    3.0959    0.0344    0.0000 C   0  0  0  0  0  0  0  0  0  0  0  0
    4.5909    0.1567    0.0000 C   0  0  0  0  0  0  0  0  0  0  0  0
    5.2324    1.5126    0.0000 C   0  0  0  0  0  0  0  0  0  0  0  0
    4.3790    2.7461    0.0000 C   0  0  0  0  0  0  0  0  0  0  0  0
    2.8840    2.6238    0.0000 C   0  0  0  0  0  0  0  0  0  0  0  0
    2.2424    1.2679    0.0000 C   0  0  0  0  0  0  0  0  0  0  0  0
    0.7459    1.3698    0.0000 N   0  0  0  0  0  0  0  0  0  0  0  0
   -0.2668    0.2632    0.0000 C   0  0  0  0  0  0  0  0  0  0  0  0
   -1.7032    0.6956    0.0000 N   0  0  0  0  0  0  0  0  0  0  0  0
   -2.0470    2.1556    0.0000 C   0  0  0  0  0  0  0  0  0  0  0  0
   -3.4833    2.5879    0.0000 C   0  0  0  0  0  0  0  0  0  0  0  0
   -4.5759    1.5602    0.0000 N   0  0  0  0  0  4  0  0  0  0  0  0
   -6.0122    1.9925    0.0000 C   0  0  0  0  0  0  0  0  0  0  0  0
   -4.2321    0.1001    0.0000 C   0  0  0  0  0  0  0  0  0  0  0  0
   -2.7957   -0.3322    0.0000 C   0  0  0  0  0  0  0  0  0  0  0  0
  1  2  1  0
  2  3  2  0
  3  4  1  0
  4  5  2  0
  5  6  1  0
  5  7  1  0
  7  8  1  0
  8  9  2  0
  9 10  1  0
 10 11  2  0
 11 12  1  0
 12 13  2  0
 13 14  1  0
 14 15  2  0
 15 16  1  0
 16 17  1  0
 17 18  1  0
 18 19  1  0
 19 20  1  0
 19 21  1  0
 21 22  1  0
  6  2  1  0
 13  8  1  0
 22 16  1  0
 15  4  1  0
M  CHG  1  19   1
M  END
> <Identifier>
OLANZAPINE

> <hERG>
1

$$$$

     RDKit          2D

 21 22  0  0  0  0  0  0  0  0999 V2000
   -0.9742   -3.7593    0.0000 C   0  0  0  0  0  0  0  0  0  0  0  0
   -2.2512   -2.9724    0.0000 C   0  0  0  0  0  0  0  0  0  0  0  0
   -2.2082   -1.4730    0.0000 O   0  0  0  0  0  0  0  0  0  0  0  0
   -3.4852   -0.6861    0.0000 C   0  0  0  0  0  0  0  0  0  0  0  0
   -4.8052   -1.3985    0.0000 C   0  0  0  0  0  0  0  0  0  0  0  0
   -6.0822   -0.6116    0.0000 C   0  0  0  0  0  0  0  0  0  0  0  0
   -6.0392    0.8878    0.0000 C   0  0  0  0  0  0  0  0  0  0  0  0
   -4.7192    1.6003    0.0000 C   0  0  0  0  0  0  0  0  0  0  0  0
   -3.4422    0.8133    0.0000 C   0  0  0  0  0  0  0  0  0  0  0  0
   -2.1222    1.5258    0.0000 C   0  0  0  0  0  0  0  0  0  0  0  0
   -2.0792    3.0252    0.0000 O   0  0  0  0  0  0  0  0  0  0  0  0
   -0.8452    0.7388    0.0000 N   0  0  0  0  0  0  0  0  0  0  0  0
    0.4748    1.4513    0.0000 C   0  0  0  0  0  0  0  0  0  0  0  0
    1.7518    0.6643    0.0000 C   0  0  0  0  0  0  0  0  0  0  0  0
    3.0718    1.3768    0.0000 C   0  0  0  0  0  0  0  0  0  0  0  0
    4.3488    0.5898    0.0000 N   0  0  0  0  0  0  0  0  0  0  0  0
    4.3058   -0.9096    0.0000 C   0  0  0  0  0  0  0  0  0  0  0  0
    5.5828   -1.6965    0.0000 C   0  0  0  0  0  0  0  0  0  0  0  0
    6.9028   -0.9841    0.0000 O   0  0  0  0  0  0  0  0  0  0  0  0
    6.9458    0.5153    0.0000 C   0  0  0  0  0  0  0  0  0  0  0  0
    5.6688    1.3023    0.0000 C   0  0  0  0  0  0  0  0  0  0  0  0
  1  2  1  0
  2  3  1  0
  3  4  1  0
  4  5  2  0
  5  6  1  0
  6  7  2  0
  7  8  1  0
  8  9  2  0
  9 10  1  0
 10 11  2  0
 10 12  1  0
 12 13  1  0
 13 14  1  0
 14 15  1  0
 15 16  1  0
 16 17  1  0
 17 18  1  0
 18 19  1  0
 19 20  1  0
 20 21  1  0
  9  4  1  0
 21 16  1  0
M  END
> <Identifier>
D-703

> <hERG>
1

$$$$

     RDKit          2D

 29 31  0  0  0  0  0  0  0  0999 V2000
   -2.3711    1.3016    0.0000 C   0  0  0  0  0  0  0  0  0  0  0  0
   -2.5004    2.7960    0.0000 C   0  0  0  0  0  0  0  0  0  0  0  0
   -2.6298    4.2904    0.0000 C   0  0  0  0  0  0  0  0  0  0  0  0
   -3.9948    2.6667    0.0000 C   0  0  0  0  0  0  0  0  0  0  0  0
   -4.6300    1.3078    0.0000 C   0  0  0  0  0  0  0  0  0  0  0  0
   -6.1244    1.1785    0.0000 C   0  0  0  0  0  0  0  0  0  0  0  0
   -6.7596   -0.1804    0.0000 C   0  0  0  0  0  0  0  0  0  0  0  0
   -5.9004   -1.4099    0.0000 C   0  0  0  0  0  0  0  0  0  0  0  0
   -6.5356   -2.7688    0.0000 C   0  0  0  0  0  0  0  0  0  0  0  0
   -5.6764   -3.9983    0.0000 C   0  0  0  0  0  0  0  0  0  0  0  0
   -4.1820   -3.8690    0.0000 C   0  0  0  0  0  0  0  0  0  0  0  0
   -3.5468   -2.5101    0.0000 C   0  0  0  0  0  0  0  0  0  0  0  0
   -4.4060   -1.2806    0.0000 C   0  0  0  0  0  0  0  0  0  0  0  0
   -3.7708    0.0783    0.0000 C   0  0  0  0  0  0  0  0  0  0  0  0
   -1.0060    2.9254    0.0000 N   0  0  0  0  0  0  0  0  0  0  0  0
   -0.1468    1.6958    0.0000 C   0  0  0  0  0  0  0  0  0  0  0  0
    1.3476    1.8252    0.0000 C   0  0  0  0  0  0  0  0  0  0  0  0
    1.9828    3.1841    0.0000 O   0  0  0  0  0  0  0  0  0  0  0  0
    2.2069    0.5957    0.0000 C   0  0  0  0  0  0  0  0  0  0  0  0
    3.7013    0.7250    0.0000 O   0  0  0  0  0  0  0  0  0  0  0  0
    4.5605   -0.5045    0.0000 C   0  0  0  0  0  0  0  0  0  0  0  0
    3.9253   -1.8634    0.0000 C   0  0  0  0  0  0  0  0  0  0  0  0
    4.7845   -3.0929    0.0000 C   0  0  0  0  0  0  0  0  0  0  0  0
    6.2789   -2.9636    0.0000 C   0  0  0  0  0  0  0  0  0  0  0  0
    6.9141   -1.6047    0.0000 C   0  0  0  0  0  0  0  0  0  0  0  0
    8.4085   -1.4754    0.0000 Cl  0  0  0  0  0  0  0  0  0  0  0  0
    6.0549   -0.3752    0.0000 C   0  0  0  0  0  0  0  0  0  0  0  0
    6.6901    0.9837    0.0000 C   0  0  0  0  0  0  0  0  0  0  0  0
    7.3253    2.3426    0.0000 N   0  0  0  0  0  0  0  0  0  0  0  0
  1  2  1  0
  2  3  1  0
  2  4  1  0
  4  5  1  0
  5  6  2  0
  6  7  1  0
  7  8  2  0
  8  9  1  0
  9 10  2  0
 10 11  1  0
 11 12  2  0
 12 13  1  0
 13 14  2  0
  2 15  1  0
 15 16  1  0
 16 17  1  0
 17 18  1  1
 17 19  1  0
 19 20  1  0
 20 21  1  0
 21 22  2  0
 22 23  1  0
 23 24  2  0
 24 25  1  0
 25 26  1  0
 25 27  2  0
 27 28  1  0
 28 29  3  0
 14  5  1  0
 27 21  1  0
 13  8  1  0
M  END
> <Identifier>
NPS-2143

> <hERG>
1

$$$$

     RDKit          2D

 33 36  0  0  0  0  0  0  0  0999 V2000
   -5.3617   -3.7489    0.0000 C   0  0  0  0  0  0  0  0  0  0  0  0
   -3.8618   -3.7692    0.0000 C   0  0  0  0  0  0  0  0  0  0  0  0
   -3.0943   -2.4804    0.0000 C   0  0  0  0  0  0  0  0  0  0  0  0
   -1.5944   -2.5007    0.0000 C   0  0  0  0  0  0  0  0  0  0  0  0
   -0.8269   -1.2119    0.0000 N   0  0  0  0  0  4  0  0  0  0  0  0
    0.6729   -1.2322    0.0000 C   0  0  0  0  0  0  0  0  0  0  0  0
    1.4404    0.0566    0.0000 C   0  0  0  0  0  0  0  0  0  0  0  0
    0.8489    1.4350    0.0000 C   0  0  0  0  0  0  0  0  0  0  0  0
    1.9771    2.4235    0.0000 N   0  0  0  0  0  0  0  0  0  0  0  0
    3.2659    1.6560    0.0000 C   0  0  0  0  0  0  0  0  0  0  0  0
    2.9342    0.1932    0.0000 N   0  0  0  0  0  0  0  0  0  0  0  0
    3.9227   -0.9350    0.0000 C   0  0  0  0  0  0  0  0  0  0  0  0
    5.3940   -0.6430    0.0000 C   0  0  0  0  0  0  0  0  0  0  0  0
    6.3826   -1.7712    0.0000 C   0  0  0  0  0  0  0  0  0  0  0  0
    7.8539   -1.4792    0.0000 C   0  0  0  0  0  0  0  0  0  0  0  0
    8.3366   -0.0590    0.0000 C   0  0  0  0  0  0  0  0  0  0  0  0
    9.8079    0.2330    0.0000 C   0  0  0  0  0  0  0  0  0  0  0  0
   11.2793    0.5249    0.0000 N   0  0  0  0  0  0  0  0  0  0  0  0
    7.3481    1.0691    0.0000 C   0  0  0  0  0  0  0  0  0  0  0  0
    5.8768    0.7772    0.0000 C   0  0  0  0  0  0  0  0  0  0  0  0
   -1.5593    0.0971    0.0000 C   0  0  0  0  0  0  0  0  0  0  0  0
   -0.9307    1.4591    0.0000 C   0  0  0  0  0  0  0  0  0  0  0  0
   -2.0318    2.4778    0.0000 C   0  0  0  0  0  0  0  0  0  0  0  0
   -3.3408    1.7454    0.0000 N   0  0  0  0  0  0  0  0  0  0  0  0
   -4.7028    2.3740    0.0000 C   0  0  0  0  0  0  0  0  0  0  0  0
   -5.9281    1.5088    0.0000 C   0  0  0  0  0  0  0  0  0  0  0  0
   -5.7915    0.0150    0.0000 C   0  0  0  0  0  0  0  0  0  0  0  0
   -7.0168   -0.8501    0.0000 C   0  0  0  0  0  0  0  0  0  0  0  0
   -8.3788   -0.2216    0.0000 C   0  0  0  0  0  0  0  0  0  0  0  0
   -8.5154    1.2722    0.0000 C   0  0  0  0  0  0  0  0  0  0  0  0
   -7.2900    2.1374    0.0000 C   0  0  0  0  0  0  0  0  0  0  0  0
   -3.0488    0.2741    0.0000 C   0  0  0  0  0  0  0  0  0  0  0  0
   -4.0675   -0.8269    0.0000 O   0  0  0  0  0  0  0  0  0  0  0  0
  1  2  1  0
  2  3  1  0
  3  4  1  0
  4  5  1  0
  5  6  1  0
  6  7  1  0
  7  8  2  0
  8  9  1  0
  9 10  2  0
 10 11  1  0
 11 12  1  0
 12 13  1  0
 13 14  2  0
 14 15  1  0
 15 16  2  0
 16 17  1  0
 17 18  3  0
 16 19  1  0
 19 20  2  0
 21  5  1  6
 21 22  1  0
 22 23  1  0
 23 24  1  0
 24 25  1  0
 25 26  1  0
 26 27  2  0
 27 28  1  0
 28 29  2  0
 29 30  1  0
 30 31  2  0
 24 32  1  0
 32 33  2  0
 11  7  1  0
 20 13  1  0
 32 21  1  0
 31 26  1  0
M  CHG  1   5   1
M  END
> <Identifier>
WOMBAT28

> <hERG>
1

$$$$

     RDKit          2D

 38 42  0  0  0  0  0  0  0  0999 V2000
   -5.2403   -5.1413    0.0000 N   0  0  0  0  0  0  0  0  0  0  0  0
   -5.2472   -3.6413    0.0000 C   0  0  0  0  0  0  0  0  0  0  0  0
   -5.2541   -2.1413    0.0000 C   0  0  0  0  0  0  0  0  0  0  0  0
   -6.5566   -1.3973    0.0000 C   0  0  0  0  0  0  0  0  0  0  0  0
   -6.5635    0.1027    0.0000 C   0  0  0  0  0  0  0  0  0  0  0  0
   -5.2679    0.8587    0.0000 C   0  0  0  0  0  0  0  0  0  0  0  0
   -5.2748    2.3587    0.0000 C   0  0  0  0  0  0  0  0  0  0  0  0
   -3.9793    3.1146    0.0000 N   0  0  0  0  0  0  0  0  0  0  0  0
   -3.8293    4.6071    0.0000 C   0  0  0  0  0  0  0  0  0  0  0  0
   -2.3636    4.9257    0.0000 N   0  0  0  0  0  0  0  0  0  0  0  0
   -1.6076    3.6302    0.0000 C   0  0  0  0  0  0  0  0  0  0  0  0
   -2.6061    2.5109    0.0000 C   0  0  0  0  0  0  0  0  0  0  0  0
   -2.2875    1.0451    0.0000 C   0  0  0  0  0  0  0  0  0  0  0  0
   -0.8588    0.5881    0.0000 N   0  0  0  0  0  4  0  0  0  0  0  0
   -0.5402   -0.8776    0.0000 C   0  0  0  0  0  0  0  0  0  0  0  0
    0.8885   -1.3346    0.0000 C   0  0  0  0  0  0  0  0  0  0  0  0
    1.2071   -2.8004    0.0000 N   0  0  0  0  0  4  0  0  0  0  0  0
    0.0971   -3.8092    0.0000 C   0  0  0  0  0  0  0  0  0  0  0  0
    0.4157   -5.2749    0.0000 C   0  0  0  0  0  0  0  0  0  0  0  0
    1.8444   -5.7319    0.0000 O   0  0  0  0  0  0  0  0  0  0  0  0
    2.9545   -4.7231    0.0000 C   0  0  0  0  0  0  0  0  0  0  0  0
    2.6358   -3.2573    0.0000 C   0  0  0  0  0  0  0  0  0  0  0  0
    0.2513    1.5970    0.0000 C   0  0  0  0  0  0  0  0  0  0  0  0
    0.0876    3.0880    0.0000 C   0  0  0  0  0  0  0  0  0  0  0  0
    1.4551    3.7044    0.0000 C   0  0  0  0  0  0  0  0  0  0  0  0
    2.4639    2.5943    0.0000 N   0  0  0  0  0  0  0  0  0  0  0  0
    3.9550    2.7580    0.0000 C   0  0  0  0  0  0  0  0  0  0  0  0
    4.8422    1.5485    0.0000 C   0  0  0  0  0  0  0  0  0  0  0  0
    4.2384    0.1754    0.0000 C   0  0  0  0  0  0  0  0  0  0  0  0
    5.1257   -1.0340    0.0000 C   0  0  0  0  0  0  0  0  0  0  0  0
    6.6167   -0.8704    0.0000 C   0  0  0  0  0  0  0  0  0  0  0  0
    7.2205    0.5028    0.0000 C   0  0  0  0  0  0  0  0  0  0  0  0
    8.7116    0.6664    0.0000 Cl  0  0  0  0  0  0  0  0  0  0  0  0
    6.3333    1.7122    0.0000 C   0  0  0  0  0  0  0  0  0  0  0  0
    1.7199    1.2919    0.0000 C   0  0  0  0  0  0  0  0  0  0  0  0
    2.3363   -0.0756    0.0000 O   0  0  0  0  0  0  0  0  0  0  0  0
   -3.9654    0.1147    0.0000 C   0  0  0  0  0  0  0  0  0  0  0  0
   -3.9585   -1.3853    0.0000 C   0  0  0  0  0  0  0  0  0  0  0  0
  1  2  3  0
  2  3  1  0
  3  4  2  0
  4  5  1  0
  5  6  2  0
  6  7  1  0
  7  8  1  0
  8  9  1  0
  9 10  2  0
 10 11  1  0
 11 12  2  0
 12 13  1  0
 13 14  1  0
 14 15  1  0
 15 16  1  0
 16 17  1  0
 17 18  1  0
 18 19  1  0
 19 20  1  0
 20 21  1  0
 21 22  1  0
 23 14  1  6
 23 24  1  0
 24 25  1  0
 25 26  1  0
 26 27  1  0
 27 28  1  0
 28 29  2  0
 29 30  1  0
 30 31  2  0
 31 32  1  0
 32 33  1  0
 32 34  2  0
 26 35  1  0
 35 36  2  0
  6 37  1  0
 37 38  2  0
 38  3  1  0
 12  8  1  0
 22 17  1  0
 35 23  1  0
 34 28  1  0
M  CHG  2  14   1  17   1
M  END
> <Identifier>
WOMBAT57

> <hERG>
1

$$$$

     RDKit          2D

 30 34  0  0  0  0  0  0  0  0999 V2000
    6.1680   -2.2663    0.0000 O   0  0  0  0  0  0  0  0  0  0  0  0
    4.8580   -1.5357    0.0000 S   0  0  0  0  0  0  0  0  0  0  0  0
    4.2682   -2.9149    0.0000 O   0  0  0  0  0  0  0  0  0  0  0  0
    5.7216   -0.3092    0.0000 C   0  0  0  0  0  0  0  0  0  0  0  0
    7.2109   -0.1303    0.0000 C   0  0  0  0  0  0  0  0  0  0  0  0
    7.8007    1.2489    0.0000 C   0  0  0  0  0  0  0  0  0  0  0  0
    6.9011    2.4492    0.0000 C   0  0  0  0  0  0  0  0  0  0  0  0
    5.4118    2.2703    0.0000 C   0  0  0  0  0  0  0  0  0  0  0  0
    4.2872    3.2731    0.0000 C   0  0  0  0  0  0  0  0  0  0  0  0
    2.8248    2.9396    0.0000 C   0  0  0  0  0  0  0  0  0  0  0  0
    2.3824    1.5063    0.0000 C   0  0  0  0  0  0  0  0  0  0  0  0
    3.4025    0.4065    0.0000 C   0  0  0  0  0  0  0  0  0  0  0  0
    4.8221    0.8911    0.0000 C   0  0  0  0  0  0  0  0  0  0  0  0
    3.4247   -1.0933    0.0000 N   0  0  0  0  0  0  0  0  0  0  0  0
    2.2244   -1.9928    0.0000 C   0  0  0  0  0  0  0  0  0  0  0  0
    0.8452   -1.4031    0.0000 C   0  0  0  0  0  0  0  0  0  0  0  0
   -0.3552   -2.3026    0.0000 C   0  0  0  0  0  0  0  0  0  0  0  0
   -1.7344   -1.7129    0.0000 N   0  0  0  0  0  0  0  0  0  0  0  0
   -1.9132   -0.2236    0.0000 C   0  0  0  0  0  0  0  0  0  0  0  0
   -3.2924    0.3661    0.0000 C   0  0  0  0  0  0  0  0  0  0  0  0
   -4.4928   -0.5334    0.0000 N   0  0  0  0  0  0  0  0  0  0  0  0
   -5.8720    0.0563    0.0000 C   0  0  0  0  0  0  0  0  0  0  0  0
   -6.0508    1.5456    0.0000 C   0  0  0  0  0  0  0  0  0  0  0  0
   -7.4300    2.1354    0.0000 C   0  0  0  0  0  0  0  0  0  0  0  0
   -8.6304    1.2358    0.0000 C   0  0  0  0  0  0  0  0  0  0  0  0
  -10.0096    1.8256    0.0000 F   0  0  0  0  0  0  0  0  0  0  0  0
   -8.4515   -0.2535    0.0000 C   0  0  0  0  0  0  0  0  0  0  0  0
   -7.0723   -0.8432    0.0000 C   0  0  0  0  0  0  0  0  0  0  0  0
   -4.3139   -2.0227    0.0000 C   0  0  0  0  0  0  0  0  0  0  0  0
   -2.9347   -2.6124    0.0000 C   0  0  0  0  0  0  0  0  0  0  0  0
  1  2  2  0
  2  3  2  0
  2  4  1  0
  4  5  2  0
  5  6  1  0
  6  7  2  0
  7  8  1  0
  8  9  2  0
  9 10  1  0
 10 11  2  0
 11 12  1  0
 12 13  2  0
 12 14  1  0
 14 15  1  0
 15 16  1  0
 16 17  1  0
 17 18  1  0
 18 19  1  0
 19 20  1  0
 20 21  1  0
 21 22  1  0
 22 23  2  0
 23 24  1  0
 24 25  2  0
 25 26  1  0
 25 27  1  0
 27 28  2  0
 21 29  1  0
 29 30  1  0
 14  2  1  0
 30 18  1  0
 13  4  1  0
 28 22  1  0
 13  8  1  0
M  END
> <Identifier>
FANANSERIN

> <hERG>
1

$$$$

     RDKit          2D

 23 26  0  0  0  0  0  0  0  0999 V2000
   -6.9170   -1.2837    0.0000 F   0  0  0  0  0  0  0  0  0  0  0  0
   -5.4413   -1.0144    0.0000 C   0  0  0  0  0  0  0  0  0  0  0  0
   -4.9367    0.3982    0.0000 C   0  0  0  0  0  0  0  0  0  0  0  0
   -3.4611    0.6675    0.0000 C   0  0  0  0  0  0  0  0  0  0  0  0
   -2.4901   -0.4758    0.0000 C   0  0  0  0  0  0  0  0  0  0  0  0
   -1.0144   -0.2065    0.0000 N   0  0  0  0  0  0  0  0  0  0  0  0
    0.0708   -1.2421    0.0000 C   0  0  0  0  0  0  0  0  0  0  0  0
    1.3910   -0.5299    0.0000 C   0  0  0  0  0  0  0  0  0  0  0  0
    2.7431   -1.1794    0.0000 C   0  0  0  0  0  0  0  0  0  0  0  0
    2.8566   -2.6751    0.0000 C   0  0  0  0  0  0  0  0  0  0  0  0
    4.2087   -3.3246    0.0000 C   0  0  0  0  0  0  0  0  0  0  0  0
    5.4472   -2.4784    0.0000 N   0  0  0  0  0  0  0  0  0  0  0  0
    5.3337   -0.9827    0.0000 C   0  0  0  0  0  0  0  0  0  0  0  0
    3.9816   -0.3332    0.0000 C   0  0  0  0  0  0  0  0  0  0  0  0
    1.1217    0.9457    0.0000 C   0  0  0  0  0  0  0  0  0  0  0  0
    2.0381    2.1332    0.0000 C   0  0  0  0  0  0  0  0  0  0  0  0
    1.4679    3.5206    0.0000 C   0  0  0  0  0  0  0  0  0  0  0  0
    2.3843    4.7081    0.0000 Cl  0  0  0  0  0  0  0  0  0  0  0  0
   -0.0188    3.7205    0.0000 C   0  0  0  0  0  0  0  0  0  0  0  0
   -0.9352    2.5330    0.0000 C   0  0  0  0  0  0  0  0  0  0  0  0
   -0.3650    1.1456    0.0000 C   0  0  0  0  0  0  0  0  0  0  0  0
   -2.9947   -1.8884    0.0000 C   0  0  0  0  0  0  0  0  0  0  0  0
   -4.4703   -2.1577    0.0000 C   0  0  0  0  0  0  0  0  0  0  0  0
  1  2  1  0
  2  3  2  0
  3  4  1  0
  4  5  2  0
  5  6  1  0
  6  7  1  0
  7  8  2  0
  8  9  1  0
  9 10  1  0
 10 11  1  0
 11 12  1  0
 12 13  1  0
 13 14  1  0
  8 15  1  0
 15 16  2  0
 16 17  1  0
 17 18  1  0
 17 19  2  0
 19 20  1  0
 20 21  2  0
  5 22  1  0
 22 23  2  0
 23  2  1  0
 21  6  1  0
 14  9  1  0
 21 15  1  0
M  END
> <Identifier>
BMCL20031829_14

> <hERG>
1

$$$$

     RDKit          2D

 30 32  0  0  0  0  0  0  0  0999 V2000
    3.9348    3.1143    0.0000 C   0  0  0  0  0  0  0  0  0  0  0  0
    3.0408    1.9098    0.0000 N   0  0  0  0  0  0  0  0  0  0  0  0
    1.5507    2.0818    0.0000 C   0  0  0  0  0  0  0  0  0  0  0  0
    0.9546    3.4583    0.0000 C   0  0  0  0  0  0  0  0  0  0  0  0
   -0.5355    3.6303    0.0000 N   0  0  0  0  0  0  0  0  0  0  0  0
   -1.1316    5.0068    0.0000 C   0  0  0  0  0  0  0  0  0  0  0  0
   -1.4296    2.4259    0.0000 S   0  0  0  0  0  0  0  0  0  0  0  0
   -0.2251    1.5318    0.0000 O   0  0  0  0  0  0  0  0  0  0  0  0
   -2.6340    3.3199    0.0000 O   0  0  0  0  0  0  0  0  0  0  0  0
   -2.3236    1.2214    0.0000 C   0  0  0  0  0  0  0  0  0  0  0  0
   -3.8137    1.3934    0.0000 C   0  0  0  0  0  0  0  0  0  0  0  0
   -4.7077    0.1889    0.0000 C   0  0  0  0  0  0  0  0  0  0  0  0
   -4.1116   -1.1875    0.0000 C   0  0  0  0  0  0  0  0  0  0  0  0
   -5.0056   -2.3920    0.0000 N   0  0  0  0  0  0  0  0  0  0  0  0
   -6.4957   -2.2200    0.0000 S   0  0  0  0  0  0  0  0  0  0  0  0
   -7.9858   -2.0480    0.0000 C   0  0  0  0  0  0  0  0  0  0  0  0
   -6.3237   -0.7299    0.0000 O   0  0  0  0  0  0  0  0  0  0  0  0
   -6.6677   -3.7101    0.0000 O   0  0  0  0  0  0  0  0  0  0  0  0
   -2.6215   -1.3596    0.0000 C   0  0  0  0  0  0  0  0  0  0  0  0
   -1.7275   -0.1551    0.0000 C   0  0  0  0  0  0  0  0  0  0  0  0
    3.6368    0.5334    0.0000 C   0  0  0  0  0  0  0  0  0  0  0  0
    2.8736   -0.7580    0.0000 N   0  0  0  0  0  0  0  0  0  0  0  0
    3.8659   -1.8829    0.0000 C   0  0  0  0  0  0  0  0  0  0  0  0
    3.6939   -3.3730    0.0000 C   0  0  0  0  0  0  0  0  0  0  0  0
    4.8984   -4.2670    0.0000 C   0  0  0  0  0  0  0  0  0  0  0  0
    6.2748   -3.6709    0.0000 C   0  0  0  0  0  0  0  0  0  0  0  0
    6.4468   -2.1808    0.0000 C   0  0  0  0  0  0  0  0  0  0  0  0
    5.2424   -1.2868    0.0000 C   0  0  0  0  0  0  0  0  0  0  0  0
    5.1008    0.2065    0.0000 N   0  0  0  0  0  0  0  0  0  0  0  0
    6.2257    1.1988    0.0000 C   0  0  0  0  0  0  0  0  0  0  0  0
  1  2  1  0
  2  3  1  0
  3  4  1  0
  4  5  1  0
  5  6  1  0
  5  7  1  0
  7  8  2  0
  7  9  2  0
  7 10  1  0
 10 11  2  0
 11 12  1  0
 12 13  2  0
 13 14  1  0
 14 15  1  0
 15 16  1  0
 15 17  2  0
 15 18  2  0
 13 19  1  0
 19 20  2  0
  2 21  1  0
 21 22  2  0
 22 23  1  0
 23 24  2  0
 24 25  1  0
 25 26  2  0
 26 27  1  0
 27 28  2  0
 28 29  1  0
 29 30  1  0
 20 10  1  0
 29 21  1  0
 28 23  1  0
M  END
> <Identifier>
WAY123398

> <hERG>
1

$$$$

     RDKit          2D

 28 31  0  0  0  0  0  0  0  0999 V2000
   -1.7474   -4.9982    0.0000 C   0  0  0  0  0  0  0  0  0  0  0  0
   -0.8201   -3.8193    0.0000 O   0  0  0  0  0  0  0  0  0  0  0  0
   -1.3775   -2.4266    0.0000 C   0  0  0  0  0  0  0  0  0  0  0  0
   -2.8622   -2.2130    0.0000 C   0  0  0  0  0  0  0  0  0  0  0  0
   -3.4195   -0.8204    0.0000 C   0  0  0  0  0  0  0  0  0  0  0  0
   -4.9043   -0.6068    0.0000 N   0  0  0  0  0  0  0  0  0  0  0  0
   -5.4616    0.7858    0.0000 S   0  0  0  0  0  0  0  0  0  0  0  0
   -6.0190    2.1784    0.0000 C   0  0  0  0  0  0  0  0  0  0  0  0
   -4.0690    1.3431    0.0000 O   0  0  0  0  0  0  0  0  0  0  0  0
   -6.8542    0.2284    0.0000 O   0  0  0  0  0  0  0  0  0  0  0  0
   -2.4922    0.3586    0.0000 C   0  0  0  0  0  0  0  0  0  0  0  0
   -1.0075    0.1449    0.0000 C   0  0  0  0  0  0  0  0  0  0  0  0
   -0.4501   -1.2477    0.0000 C   0  0  0  0  0  0  0  0  0  0  0  0
    1.0346   -1.4613    0.0000 N   0  0  0  0  0  0  0  0  0  0  0  0
    1.9619   -0.2823    0.0000 C   0  0  0  0  0  0  0  0  0  0  0  0
    3.4467   -0.4959    0.0000 C   0  0  0  0  0  0  0  0  0  0  0  0
    4.0040   -1.8885    0.0000 C   0  0  0  0  0  0  0  0  0  0  0  0
    5.4887   -2.1021    0.0000 C   0  0  0  0  0  0  0  0  0  0  0  0
    6.4161   -0.9231    0.0000 C   0  0  0  0  0  0  0  0  0  0  0  0
    5.8587    0.4695    0.0000 C   0  0  0  0  0  0  0  0  0  0  0  0
    4.3740    0.6831    0.0000 C   0  0  0  0  0  0  0  0  0  0  0  0
    3.8166    2.0757    0.0000 N   0  0  0  0  0  0  0  0  0  0  0  0
    2.3319    2.2893    0.0000 C   0  0  0  0  0  0  0  0  0  0  0  0
    1.7746    3.6819    0.0000 C   0  0  0  0  0  0  0  0  0  0  0  0
    0.2898    3.8955    0.0000 C   0  0  0  0  0  0  0  0  0  0  0  0
   -0.6375    2.7165    0.0000 C   0  0  0  0  0  0  0  0  0  0  0  0
   -0.0801    1.3239    0.0000 C   0  0  0  0  0  0  0  0  0  0  0  0
    1.4046    1.1103    0.0000 C   0  0  0  0  0  0  0  0  0  0  0  0
  1  2  1  0
  2  3  1  0
  3  4  2  0
  4  5  1  0
  5  6  1  0
  6  7  1  0
  7  8  1  0
  7  9  2  0
  7 10  2  0
  5 11  2  0
 11 12  1  0
 12 13  2  0
 13 14  1  0
 14 15  1  0
 15 16  1  0
 16 17  2  0
 17 18  1  0
 18 19  2  0
 19 20  1  0
 20 21  2  0
 21 22  1  0
 22 23  2  0
 23 24  1  0
 24 25  2  0
 25 26  1  0
 26 27  2  0
 27 28  1  0
 13  3  1  0
 28 15  2  0
 21 16  1  0
 28 23  1  0
M  END
> <Identifier>
AMSACRINE

> <hERG>
1

$$$$

     RDKit          2D

 24 26  0  0  0  0  0  0  0  0999 V2000
   -7.1340    2.3217    0.0000 C   0  0  0  0  0  0  0  0  0  0  0  0
   -5.6685    2.6414    0.0000 C   0  0  0  0  0  0  0  0  0  0  0  0
   -4.6589    1.5321    0.0000 N   0  0  0  0  0  4  0  0  0  0  0  0
   -5.1148    0.1031    0.0000 C   0  0  0  0  0  0  0  0  0  0  0  0
   -6.5803   -0.2166    0.0000 C   0  0  0  0  0  0  0  0  0  0  0  0
   -3.1933    1.8518    0.0000 C   0  0  0  0  0  0  0  0  0  0  0  0
   -2.1837    0.7424    0.0000 C   0  0  0  0  0  0  0  0  0  0  0  0
   -0.7182    1.0621    0.0000 C   0  0  0  0  0  0  0  0  0  0  0  0
    0.2915   -0.0472    0.0000 N   0  0  0  0  0  0  0  0  0  0  0  0
   -0.1644   -1.4763    0.0000 C   0  0  0  0  0  0  0  0  0  0  0  0
   -1.6300   -1.7959    0.0000 C   0  0  0  0  0  0  0  0  0  0  0  0
   -2.0859   -3.2250    0.0000 C   0  0  0  0  0  0  0  0  0  0  0  0
   -1.0763   -4.3343    0.0000 C   0  0  0  0  0  0  0  0  0  0  0  0
    0.3893   -4.0146    0.0000 C   0  0  0  0  0  0  0  0  0  0  0  0
    0.8452   -2.5856    0.0000 C   0  0  0  0  0  0  0  0  0  0  0  0
    1.7570    0.2725    0.0000 C   0  0  0  0  0  0  0  0  0  0  0  0
    2.8771   -0.7253    0.0000 C   0  0  0  0  0  0  0  0  0  0  0  0
    4.1721    0.0317    0.0000 C   0  0  0  0  0  0  0  0  0  0  0  0
    5.6011   -0.4243    0.0000 C   0  0  0  0  0  0  0  0  0  0  0  0
    6.7105    0.5854    0.0000 C   0  0  0  0  0  0  0  0  0  0  0  0
    6.3908    2.0509    0.0000 C   0  0  0  0  0  0  0  0  0  0  0  0
    4.9617    2.5068    0.0000 C   0  0  0  0  0  0  0  0  0  0  0  0
    3.8524    1.4972    0.0000 C   0  0  0  0  0  0  0  0  0  0  0  0
    2.3598    1.6460    0.0000 C   0  0  0  0  0  0  0  0  0  0  0  0
  1  2  1  0
  2  3  1  0
  3  4  1  0
  4  5  1  0
  3  6  1  0
  6  7  1  0
  7  8  1  0
  8  9  1  0
  9 10  1  0
 10 11  2  0
 11 12  1  0
 12 13  2  0
 13 14  1  0
 14 15  2  0
  9 16  1  0
 16 17  1  0
 17 18  1  0
 18 19  2  0
 19 20  1  0
 20 21  2  0
 21 22  1  0
 22 23  2  0
 23 24  1  0
 15 10  1  0
 24 16  1  0
 23 18  1  0
M  CHG  1   3   1
M  END
> <Identifier>
APRINIDINE

> <hERG>
1

$$$$

     RDKit          2D

 28 31  0  0  0  0  0  0  0  0999 V2000
   -7.3653   -0.7220    0.0000 C   0  0  0  0  0  0  0  0  0  0  0  0
   -5.9270   -1.1480    0.0000 N   0  0  0  0  0  4  0  0  0  0  0  0
   -4.8391   -0.1153    0.0000 C   0  0  0  0  0  0  0  0  0  0  0  0
   -3.4008   -0.5413    0.0000 C   0  0  0  0  0  0  0  0  0  0  0  0
   -3.0505   -1.9998    0.0000 N   0  0  0  0  0  4  0  0  0  0  0  0
   -1.6123   -2.4257    0.0000 C   0  0  0  0  0  0  0  0  0  0  0  0
   -0.5243   -1.3931    0.0000 C   0  0  0  0  0  0  0  0  0  0  0  0
    0.9140   -1.8190    0.0000 C   0  0  0  0  0  0  0  0  0  0  0  0
    2.0020   -0.7864    0.0000 N   0  0  0  0  0  0  0  0  0  0  0  0
    3.4402   -1.2123    0.0000 C   0  0  0  0  0  0  0  0  0  0  0  0
    3.7905   -2.6708    0.0000 C   0  0  0  0  0  0  0  0  0  0  0  0
    5.2288   -3.0967    0.0000 C   0  0  0  0  0  0  0  0  0  0  0  0
    6.3168   -2.0641    0.0000 C   0  0  0  0  0  0  0  0  0  0  0  0
    5.9665   -0.6056    0.0000 C   0  0  0  0  0  0  0  0  0  0  0  0
    4.5282   -0.1797    0.0000 C   0  0  0  0  0  0  0  0  0  0  0  0
    4.1779    1.2788    0.0000 S   0  0  0  0  0  0  0  0  0  0  0  0
    2.7397    1.7048    0.0000 C   0  0  0  0  0  0  0  0  0  0  0  0
    2.3894    3.1633    0.0000 C   0  0  0  0  0  0  0  0  0  0  0  0
    0.9511    3.5892    0.0000 C   0  0  0  0  0  0  0  0  0  0  0  0
   -0.1369    2.5566    0.0000 C   0  0  0  0  0  0  0  0  0  0  0  0
   -1.5751    2.9825    0.0000 C   0  0  0  0  0  0  0  0  0  0  0  0
   -3.0134    3.4084    0.0000 F   0  0  0  0  0  0  0  0  0  0  0  0
   -1.1492    4.4208    0.0000 F   0  0  0  0  0  0  0  0  0  0  0  0
   -2.0010    1.5442    0.0000 F   0  0  0  0  0  0  0  0  0  0  0  0
    0.2134    1.0981    0.0000 C   0  0  0  0  0  0  0  0  0  0  0  0
    1.6517    0.6721    0.0000 C   0  0  0  0  0  0  0  0  0  0  0  0
   -4.1385   -3.0324    0.0000 C   0  0  0  0  0  0  0  0  0  0  0  0
   -5.5768   -2.6065    0.0000 C   0  0  0  0  0  0  0  0  0  0  0  0
  1  2  1  0
  2  3  1  0
  3  4  1  0
  4  5  1  0
  5  6  1  0
  6  7  1  0
  7  8  1  0
  8  9  1  0
  9 10  1  0
 10 11  2  0
 11 12  1  0
 12 13  2  0
 13 14  1  0
 14 15  2  0
 15 16  1  0
 16 17  1  0
 17 18  2  0
 18 19  1  0
 19 20  2  0
 20 21  1  0
 21 22  1  0
 21 23  1  0
 21 24  1  0
 20 25  1  0
 25 26  2  0
  5 27  1  0
 27 28  1  0
 28  2  1  0
 26  9  1  0
 15 10  1  0
 26 17  1  0
M  CHG  2   2   1   5   1
M  END
> <Identifier>
TRIFLUOPERAZINE

> <hERG>
1

$$$$

     RDKit          2D

 39 41  0  0  0  0  0  0  0  0999 V2000
    9.1191   -4.6755    0.0000 C   0  0  0  0  0  0  0  0  0  0  0  0
    8.8890   -3.1933    0.0000 O   0  0  0  0  0  0  0  0  0  0  0  0
    7.4903   -2.6515    0.0000 C   0  0  0  0  0  0  0  0  0  0  0  0
    6.3217   -3.5919    0.0000 C   0  0  0  0  0  0  0  0  0  0  0  0
    4.9230   -3.0501    0.0000 C   0  0  0  0  0  0  0  0  0  0  0  0
    4.6928   -1.5678    0.0000 C   0  0  0  0  0  0  0  0  0  0  0  0
    3.2941   -1.0260    0.0000 C   0  0  0  0  0  0  0  0  0  0  0  0
    3.0640    0.4562    0.0000 C   0  0  0  0  0  0  0  0  0  0  0  0
    1.6653    0.9981    0.0000 N   0  0  0  0  0  0  0  0  0  0  0  0
    1.4351    2.4803    0.0000 C   0  0  0  0  0  0  0  0  0  0  0  0
    0.4967    0.0577    0.0000 C   0  0  0  0  0  0  0  0  0  0  0  0
   -0.9021    0.5995    0.0000 C   0  0  0  0  0  0  0  0  0  0  0  0
   -2.0707   -0.3409    0.0000 C   0  0  0  0  0  0  0  0  0  0  0  0
   -3.4694    0.2009    0.0000 N   0  0  0  0  0  0  0  0  0  0  0  0
   -3.6995    1.6831    0.0000 C   0  0  0  0  0  0  0  0  0  0  0  0
   -5.0982    2.2249    0.0000 O   0  0  0  0  0  0  0  0  0  0  0  0
   -2.5309    2.6235    0.0000 C   0  0  0  0  0  0  0  0  0  0  0  0
   -1.1322    2.0817    0.0000 C   0  0  0  0  0  0  0  0  0  0  0  0
    0.0364    3.0221    0.0000 C   0  0  0  0  0  0  0  0  0  0  0  0
   -0.1937    4.5044    0.0000 C   0  0  0  0  0  0  0  0  0  0  0  0
    0.9749    5.4448    0.0000 N   0  0  0  0  0  4  0  0  0  0  0  0
    2.3736    4.9030    0.0000 O   0  0  0  0  0  0  0  0  0  0  0  0
    0.7447    6.9270    0.0000 O   0  0  0  0  0  1  0  0  0  0  0  0
   -1.5925    5.0462    0.0000 C   0  0  0  0  0  0  0  0  0  0  0  0
   -2.7610    4.1058    0.0000 C   0  0  0  0  0  0  0  0  0  0  0  0
   -4.6380   -0.7395    0.0000 C   0  0  0  0  0  0  0  0  0  0  0  0
   -6.0367   -0.1977    0.0000 C   0  0  0  0  0  0  0  0  0  0  0  0
   -7.2053   -1.1381    0.0000 C   0  0  0  0  0  0  0  0  0  0  0  0
   -6.9752   -2.6204    0.0000 C   0  0  0  0  0  0  0  0  0  0  0  0
   -8.1437   -3.5608    0.0000 O   0  0  0  0  0  0  0  0  0  0  0  0
   -9.5425   -3.0190    0.0000 C   0  0  0  0  0  0  0  0  0  0  0  0
   -5.5764   -3.1622    0.0000 C   0  0  0  0  0  0  0  0  0  0  0  0
   -5.3463   -4.6445    0.0000 O   0  0  0  0  0  0  0  0  0  0  0  0
   -3.9476   -5.1863    0.0000 C   0  0  0  0  0  0  0  0  0  0  0  0
   -4.4078   -2.2218    0.0000 C   0  0  0  0  0  0  0  0  0  0  0  0
    5.8614   -0.6274    0.0000 C   0  0  0  0  0  0  0  0  0  0  0  0
    7.2602   -1.1692    0.0000 C   0  0  0  0  0  0  0  0  0  0  0  0
    8.4287   -0.2288    0.0000 O   0  0  0  0  0  0  0  0  0  0  0  0
    8.1986    1.2534    0.0000 C   0  0  0  0  0  0  0  0  0  0  0  0
  1  2  1  0
  2  3  1  0
  3  4  2  0
  4  5  1  0
  5  6  2  0
  6  7  1  0
  7  8  1  0
  8  9  1  0
  9 10  1  0
  9 11  1  0
 11 12  1  0
 12 13  1  0
 13 14  1  0
 14 15  1  0
 15 16  2  0
 15 17  1  0
 17 18  2  0
 18 19  1  0
 19 20  2  0
 20 21  1  0
 21 22  2  0
 21 23  1  0
 20 24  1  0
 24 25  2  0
 14 26  1  0
 26 27  2  0
 27 28  1  0
 28 29  2  0
 29 30  1  0
 30 31  1  0
 29 32  1  0
 32 33  1  0
 33 34  1  0
 32 35  2  0
  6 36  1  0
 36 37  2  0
 37 38  1  0
 38 39  1  0
 37  3  1  0
 25 17  1  0
 35 26  1  0
M  CHG  2  21   1  23  -1
M  END
> <Identifier>
BRL-32872

> <hERG>
1

$$$$

     RDKit          2D

 18 19  0  0  0  0  0  0  0  0999 V2000
   -0.7816   -4.9592    0.0000 C   0  0  0  0  0  0  0  0  0  0  0  0
    0.0549   -3.7141    0.0000 C   0  0  0  0  0  0  0  0  0  0  0  0
   -0.6053   -2.3671    0.0000 O   0  0  0  0  0  0  0  0  0  0  0  0
    0.2311   -1.1220    0.0000 C   0  0  0  0  0  0  0  0  0  0  0  0
    1.7277   -1.2238    0.0000 O   0  0  0  0  0  0  0  0  0  0  0  0
   -0.4290    0.2249    0.0000 C   0  0  0  0  0  0  0  0  0  0  0  0
    1.0121    0.6412    0.0000 C   0  0  0  0  0  0  0  0  0  0  0  0
    2.0931   -0.3988    0.0000 C   0  0  0  0  0  0  0  0  0  0  0  0
    3.5342    0.0174    0.0000 C   0  0  0  0  0  0  0  0  0  0  0  0
    3.8943    1.4736    0.0000 C   0  0  0  0  0  0  0  0  0  0  0  0
    2.8133    2.5135    0.0000 C   0  0  0  0  0  0  0  0  0  0  0  0
    1.3722    2.0973    0.0000 C   0  0  0  0  0  0  0  0  0  0  0  0
   -0.5886    1.7164    0.0000 C   0  0  0  0  0  0  0  0  0  0  0  0
   -1.9601    2.3239    0.0000 C   0  0  0  0  0  0  0  0  0  0  0  0
   -3.1719    1.4399    0.0000 N   0  0  0  0  0  0  0  0  0  0  0  0
   -4.5434    2.0474    0.0000 C   0  0  0  0  0  0  0  0  0  0  0  0
   -3.0123   -0.0516    0.0000 C   0  0  0  0  0  0  0  0  0  0  0  0
   -1.6408   -0.6590    0.0000 C   0  0  0  0  0  0  0  0  0  0  0  0
  1  2  1  0
  2  3  1  0
  3  4  1  0
  4  5  2  0
  4  6  1  0
  6  7  1  0
  7  8  2  0
  8  9  1  0
  9 10  2  0
 10 11  1  0
 11 12  2  0
  6 13  1  0
 13 14  1  0
 14 15  1  0
 15 16  1  0
 15 17  1  0
 17 18  1  0
 18  6  1  0
 12  7  1  0
M  END
> <Identifier>
MEPERIDINE

> <hERG>
1

$$$$

     RDKit          2D

 28 31  0  0  0  0  0  0  0  0999 V2000
   -8.5532    2.7607    0.0000 C   0  0  0  0  0  0  0  0  0  0  0  0
   -8.1557    1.3143    0.0000 O   0  0  0  0  0  0  0  0  0  0  0  0
   -6.7044    0.9354    0.0000 C   0  0  0  0  0  0  0  0  0  0  0  0
   -5.6505    2.0028    0.0000 C   0  0  0  0  0  0  0  0  0  0  0  0
   -4.1992    1.6239    0.0000 C   0  0  0  0  0  0  0  0  0  0  0  0
   -3.8017    0.1775    0.0000 C   0  0  0  0  0  0  0  0  0  0  0  0
   -2.3504   -0.2015    0.0000 C   0  0  0  0  0  0  0  0  0  0  0  0
   -1.9529   -1.6478    0.0000 C   0  0  0  0  0  0  0  0  0  0  0  0
   -0.5015   -2.0268    0.0000 C   0  0  0  0  0  0  0  0  0  0  0  0
    0.5523   -0.9594    0.0000 N   0  0  0  0  0  0  0  0  0  0  0  0
    2.0037   -1.3383    0.0000 C   0  0  0  0  0  0  0  0  0  0  0  0
    3.0575   -0.2709    0.0000 C   0  0  0  0  0  0  0  0  0  0  0  0
    4.5089   -0.6498    0.0000 C   0  0  0  0  0  0  0  0  0  0  0  0
    4.9064   -2.0962    0.0000 C   0  0  0  0  0  0  0  0  0  0  0  0
    6.3577   -2.4752    0.0000 C   0  0  0  0  0  0  0  0  0  0  0  0
    7.4116   -1.4077    0.0000 O   0  0  0  0  0  0  0  0  0  0  0  0
    7.0141    0.0386    0.0000 C   0  0  0  0  0  0  0  0  0  0  0  0
    8.0679    1.1061    0.0000 C   0  0  0  0  0  0  0  0  0  0  0  0
    7.6704    2.5524    0.0000 C   0  0  0  0  0  0  0  0  0  0  0  0
    6.2191    2.9314    0.0000 C   0  0  0  0  0  0  0  0  0  0  0  0
    5.1652    1.8640    0.0000 C   0  0  0  0  0  0  0  0  0  0  0  0
    5.5627    0.4176    0.0000 C   0  0  0  0  0  0  0  0  0  0  0  0
    0.1548    0.4870    0.0000 C   0  0  0  0  0  0  0  0  0  0  0  0
   -1.2965    0.8660    0.0000 C   0  0  0  0  0  0  0  0  0  0  0  0
   -4.8555   -0.8899    0.0000 C   0  0  0  0  0  0  0  0  0  0  0  0
   -6.3069   -0.5110    0.0000 C   0  0  0  0  0  0  0  0  0  0  0  0
   -7.3607   -1.5784    0.0000 O   0  0  0  0  0  0  0  0  0  0  0  0
   -6.9633   -3.0248    0.0000 C   0  0  0  0  0  0  0  0  0  0  0  0
  1  2  1  0
  2  3  1  0
  3  4  2  0
  4  5  1  0
  5  6  2  0
  6  7  1  0
  7  8  1  0
  8  9  1  0
  9 10  1  0
 10 11  1  0
 11 12  1  0
 13 12  1  6
 13 14  1  0
 14 15  1  0
 15 16  1  0
 16 17  1  0
 17 18  2  0
 18 19  1  0
 19 20  2  0
 20 21  1  0
 21 22  2  0
 10 23  1  0
 23 24  1  0
  6 25  1  0
 25 26  2  0
 26 27  1  0
 27 28  1  0
 26  3  1  0
 24  7  1  0
 22 13  1  0
 22 17  1  0
M  END
> <Identifier>
TERIKALANT

> <hERG>
1

$$$$

     RDKit          2D

 23 26  0  0  0  0  0  0  0  0999 V2000
    6.0033    2.4954    0.0000 C   0  0  0  0  0  0  0  0  0  0  0  0
    4.6280    1.8967    0.0000 N   0  0  0  0  0  4  0  0  0  0  0  0
    4.4588    0.4062    0.0000 C   0  0  0  0  0  0  0  0  0  0  0  0
    3.0835   -0.1925    0.0000 C   0  0  0  0  0  0  0  0  0  0  0  0
    1.8773    0.6992    0.0000 N   0  0  0  0  0  0  0  0  0  0  0  0
    0.5020    0.1004    0.0000 C   0  0  0  0  0  0  0  0  0  0  0  0
   -0.6342    1.0797    0.0000 N   0  0  0  0  0  0  0  0  0  0  0  0
   -2.1082    0.8020    0.0000 C   0  0  0  0  0  0  0  0  0  0  0  0
   -2.9053    2.0727    0.0000 C   0  0  0  0  0  0  0  0  0  0  0  0
   -4.4043    2.0178    0.0000 C   0  0  0  0  0  0  0  0  0  0  0  0
   -5.2013    3.2885    0.0000 Cl  0  0  0  0  0  0  0  0  0  0  0  0
   -5.1062    0.6922    0.0000 C   0  0  0  0  0  0  0  0  0  0  0  0
   -4.3092   -0.5785    0.0000 C   0  0  0  0  0  0  0  0  0  0  0  0
   -2.8102   -0.5236    0.0000 C   0  0  0  0  0  0  0  0  0  0  0  0
   -2.2114   -1.8989    0.0000 N   0  0  0  0  0  0  0  0  0  0  0  0
   -0.7628   -2.2883    0.0000 C   0  0  0  0  0  0  0  0  0  0  0  0
   -0.5961   -3.7790    0.0000 C   0  0  0  0  0  0  0  0  0  0  0  0
    0.7783   -4.3799    0.0000 C   0  0  0  0  0  0  0  0  0  0  0  0
    1.9859   -3.4901    0.0000 C   0  0  0  0  0  0  0  0  0  0  0  0
    1.8191   -1.9994    0.0000 C   0  0  0  0  0  0  0  0  0  0  0  0
    0.4448   -1.3985    0.0000 C   0  0  0  0  0  0  0  0  0  0  0  0
    2.0465    2.1896    0.0000 C   0  0  0  0  0  0  0  0  0  0  0  0
    3.4218    2.7883    0.0000 C   0  0  0  0  0  0  0  0  0  0  0  0
  1  2  1  0
  2  3  1  0
  3  4  1  0
  4  5  1  0
  5  6  1  0
  6  7  2  0
  7  8  1  0
  8  9  2  0
  9 10  1  0
 10 11  1  0
 10 12  2  0
 12 13  1  0
 13 14  2  0
 14 15  1  0
 15 16  1  0
 16 17  2  0
 17 18  1  0
 18 19  2  0
 19 20  1  0
 20 21  2  0
  5 22  1  0
 22 23  1  0
 23  2  1  0
 21  6  1  0
 14  8  1  0
 21 16  1  0
M  CHG  1   2   1
M  END
> <Identifier>
CLOZAPINE

> <hERG>
1

$$$$

     RDKit          2D

 27 31  0  0  0  0  0  0  0  0999 V2000
   -0.9796    0.9389    0.0000 O   0  0  0  0  0  0  0  0  0  0  0  0
   -0.7103   -0.5368    0.0000 C   0  0  0  0  0  0  0  0  0  0  0  0
   -1.8537   -1.5077    0.0000 O   0  0  0  0  0  0  0  0  0  0  0  0
   -4.1650   -0.0510    0.0000 C   0  0  0  0  0  0  0  0  0  0  0  0
   -5.2035   -0.9329    0.0000 C   0  0  0  0  0  0  0  0  0  0  0  0
   -5.8221   -1.4694    0.0000 N   0  0  0  0  0  0  0  0  0  0  0  0
   -6.0913    0.0063    0.0000 C   0  0  0  0  0  0  0  0  0  0  0  0
   -4.9480    0.9772    0.0000 C   0  0  0  0  0  0  0  0  0  0  0  0
   -3.5355    0.4726    0.0000 C   0  0  0  0  0  0  0  0  0  0  0  0
   -3.9254   -0.7676    0.0000 C   0  0  0  0  0  0  0  0  0  0  0  0
   -4.5352   -1.2854    0.0000 C   0  0  0  0  0  0  0  0  0  0  0  0
    0.7022   -1.0414    0.0000 N   0  0  0  0  0  0  0  0  0  0  0  0
    0.9714   -2.5171    0.0000 C   0  0  0  0  0  0  0  0  0  0  0  0
    2.3840   -3.0217    0.0000 C   0  0  0  0  0  0  0  0  0  0  0  0
    3.5273   -2.0507    0.0000 C   0  0  0  0  0  0  0  0  0  0  0  0
    4.9399   -2.5554    0.0000 C   0  0  0  0  0  0  0  0  0  0  0  0
    6.0832   -1.5844    0.0000 C   0  0  0  0  0  0  0  0  0  0  0  0
    5.8140   -0.1088    0.0000 C   0  0  0  0  0  0  0  0  0  0  0  0
    4.4014    0.3959    0.0000 C   0  0  0  0  0  0  0  0  0  0  0  0
    3.2581   -0.5751    0.0000 C   0  0  0  0  0  0  0  0  0  0  0  0
    1.8455   -0.0704    0.0000 C   0  0  0  0  0  0  0  0  0  0  0  0
    1.5763    1.4052    0.0000 C   0  0  0  0  0  0  0  0  0  0  0  0
    2.7196    2.3762    0.0000 C   0  0  0  0  0  0  0  0  0  0  0  0
    2.4504    3.8518    0.0000 C   0  0  0  0  0  0  0  0  0  0  0  0
    1.0379    4.3565    0.0000 C   0  0  0  0  0  0  0  0  0  0  0  0
   -0.1055    3.3855    0.0000 C   0  0  0  0  0  0  0  0  0  0  0  0
    0.1638    1.9099    0.0000 C   0  0  0  0  0  0  0  0  0  0  0  0
  1  2  2  0
  2  3  1  0
  4  3  1  1
  4  5  1  0
  5  6  1  0
  6  7  1  0
  7  8  1  0
  8  9  1  0
  9 10  1  0
 10 11  1  0
  2 12  1  0
 12 13  1  0
 13 14  1  0
 14 15  1  0
 15 16  2  0
 16 17  1  0
 17 18  2  0
 18 19  1  0
 19 20  2  0
 20 21  1  0
 21 22  1  1
 22 23  2  0
 23 24  1  0
 24 25  2  0
 25 26  1  0
 26 27  2  0
  9  4  1  0
 21 12  1  0
 27 22  1  0
 11  6  1  0
 20 15  1  0
M  END
> <Identifier>
SOLIFENACIN

> <hERG>
1

$$$$

     RDKit          2D

 29 31  0  0  0  0  0  0  0  0999 V2000
   -9.5104    2.5314    0.0000 C   0  0  0  0  0  0  0  0  0  0  0  0
   -8.0105    2.5537    0.0000 C   0  0  0  0  0  0  0  0  0  0  0  0
   -7.2413    1.2659    0.0000 N   0  0  0  0  0  0  0  0  0  0  0  0
   -7.9719   -0.0441    0.0000 C   0  0  0  0  0  0  0  0  0  0  0  0
   -9.4717   -0.0664    0.0000 C   0  0  0  0  0  0  0  0  0  0  0  0
   -5.7415    1.2882    0.0000 C   0  0  0  0  0  0  0  0  0  0  0  0
   -4.9722    0.0005    0.0000 C   0  0  0  0  0  0  0  0  0  0  0  0
   -3.4724    0.0228    0.0000 N   0  0  0  0  0  0  0  0  0  0  0  0
   -2.7031   -1.2649    0.0000 C   0  0  0  0  0  0  0  0  0  0  0  0
   -3.4337   -2.5750    0.0000 O   0  0  0  0  0  0  0  0  0  0  0  0
   -1.2033   -1.2426    0.0000 C   0  0  0  0  0  0  0  0  0  0  0  0
   -0.3037   -2.4429    0.0000 C   0  0  0  0  0  0  0  0  0  0  0  0
   -0.7459   -3.8762    0.0000 C   0  0  0  0  0  0  0  0  0  0  0  0
    1.1159   -1.9582    0.0000 N   0  0  0  0  0  0  0  0  0  0  0  0
    1.0935   -0.4583    0.0000 C   0  0  0  0  0  0  0  0  0  0  0  0
    2.2938    0.4413    0.0000 C   0  0  0  0  0  0  0  0  0  0  0  0
    3.6731   -0.1484    0.0000 C   0  0  0  0  0  0  0  0  0  0  0  0
    4.0067   -1.6108    0.0000 C   0  0  0  0  0  0  0  0  0  0  0  0
    3.0197   -2.7403    0.0000 O   0  0  0  0  0  0  0  0  0  0  0  0
    5.5007   -1.7454    0.0000 N   0  0  0  0  0  0  0  0  0  0  0  0
    6.0903   -0.3661    0.0000 C   0  0  0  0  0  0  0  0  0  0  0  0
    7.5099    0.1186    0.0000 C   0  0  0  0  0  0  0  0  0  0  0  0
    7.7999    1.5903    0.0000 C   0  0  0  0  0  0  0  0  0  0  0  0
    6.6703    2.5773    0.0000 C   0  0  0  0  0  0  0  0  0  0  0  0
    6.9604    4.0490    0.0000 F   0  0  0  0  0  0  0  0  0  0  0  0
    5.2508    2.0926    0.0000 C   0  0  0  0  0  0  0  0  0  0  0  0
    4.9608    0.6209    0.0000 C   0  0  0  0  0  0  0  0  0  0  0  0
   -0.3398   -0.0161    0.0000 C   0  0  0  0  0  0  0  0  0  0  0  0
   -0.8245    1.4034    0.0000 C   0  0  0  0  0  0  0  0  0  0  0  0
  1  2  1  0
  2  3  1  0
  3  4  1  0
  4  5  1  0
  3  6  1  0
  6  7  1  0
  7  8  1  0
  8  9  1  0
  9 10  2  0
  9 11  1  0
 11 12  2  0
 12 13  1  0
 12 14  1  0
 14 15  1  0
 15 16  1  0
 16 17  2  0
 17 18  1  0
 18 19  2  0
 18 20  1  0
 20 21  1  0
 21 22  2  0
 22 23  1  0
 23 24  2  0
 24 25  1  0
 24 26  1  0
 26 27  2  0
 15 28  2  0
 28 29  1  0
 28 11  1  0
 27 17  1  0
 27 21  1  0
M  END
> <Identifier>
SUNITINIB

> <hERG>
1

$$$$

     RDKit          2D

 30 33  0  0  0  0  0  0  0  0999 V2000
    8.6193    1.5468    0.0000 C   0  0  0  0  0  0  0  0  0  0  0  0
    7.1437    1.8161    0.0000 C   0  0  0  0  0  0  0  0  0  0  0  0
    6.4942    3.1682    0.0000 C   0  0  0  0  0  0  0  0  0  0  0  0
    5.0076    2.9683    0.0000 C   0  0  0  0  0  0  0  0  0  0  0  0
    4.7383    1.4927    0.0000 C   0  0  0  0  0  0  0  0  0  0  0  0
    3.3861    0.8432    0.0000 C   0  0  0  0  0  0  0  0  0  0  0  0
    2.1476    1.6894    0.0000 N   0  0  0  0  0  0  0  0  0  0  0  0
    0.7955    1.0399    0.0000 C   0  0  0  0  0  0  0  0  0  0  0  0
   -0.4430    1.8862    0.0000 N   0  0  0  0  0  0  0  0  0  0  0  0
   -1.7951    1.2367    0.0000 C   0  0  0  0  0  0  0  0  0  0  0  0
   -1.9087   -0.2590    0.0000 O   0  0  0  0  0  0  0  0  0  0  0  0
   -3.0336    2.0829    0.0000 C   0  0  0  0  0  0  0  0  0  0  0  0
   -4.3857    1.4334    0.0000 N   0  0  0  0  0  0  0  0  0  0  0  0
   -4.3872   -0.0666    0.0000 C   0  0  0  0  0  0  0  0  0  0  0  0
   -5.5609   -1.0007    0.0000 C   0  0  0  0  0  0  0  0  0  0  0  0
   -7.0229   -0.6654    0.0000 C   0  0  0  0  0  0  0  0  0  0  0  0
   -7.6724    0.6867    0.0000 N   0  0  0  0  0  0  0  0  0  0  0  0
   -9.1724    0.6882    0.0000 C   0  0  0  0  0  0  0  0  0  0  0  0
   -7.0202    2.0375    0.0000 C   0  0  0  0  0  0  0  0  0  0  0  0
   -5.5575    2.3698    0.0000 C   0  0  0  0  0  0  0  0  0  0  0  0
    0.6819   -0.4558    0.0000 C   0  0  0  0  0  0  0  0  0  0  0  0
    1.9205   -1.3020    0.0000 C   0  0  0  0  0  0  0  0  0  0  0  0
    1.8069   -2.7977    0.0000 N   0  0  0  0  0  0  0  0  0  0  0  0
    2.9502   -3.7687    0.0000 N   0  0  0  0  0  0  0  0  0  0  0  0
    2.3799   -5.1561    0.0000 C   0  0  0  0  0  0  0  0  0  0  0  0
    0.8842   -5.0425    0.0000 C   0  0  0  0  0  0  0  0  0  0  0  0
    0.5301   -3.5849    0.0000 C   0  0  0  0  0  0  0  0  0  0  0  0
   -0.8573   -3.0147    0.0000 C   0  0  0  0  0  0  0  0  0  0  0  0
    3.2726   -0.6525    0.0000 N   0  0  0  0  0  0  0  0  0  0  0  0
    6.0584    0.7806    0.0000 O   0  0  0  0  0  0  0  0  0  0  0  0
  1  2  1  0
  2  3  2  0
  3  4  1  0
  4  5  2  0
  5  6  1  0
  6  7  2  0
  7  8  1  0
  8  9  1  0
  9 10  1  0
 10 11  2  0
 10 12  1  0
 12 13  1  0
 13 14  1  0
 14 15  1  0
 15 16  1  0
 16 17  1  0
 17 18  1  0
 17 19  1  0
 19 20  1  0
  8 21  2  0
 21 22  1  0
 22 23  1  0
 23 24  1  0
 24 25  2  0
 25 26  1  0
 26 27  2  0
 27 28  1  0
 22 29  2  0
  5 30  1  0
 30  2  1  0
 29  6  1  0
 20 13  1  0
 27 23  1  0
M  END
> <Identifier>
2-AMINO-N-PYRIMIDIN-4-YLACETAMIDE-2

> <hERG>
1

$$$$

     RDKit          2D

 28 32  0  0  0  0  0  0  0  0999 V2000
    5.8685   -0.6848    0.0000 C   0  0  0  0  0  0  0  0  0  0  0  0
    4.3926   -0.9525    0.0000 C   0  0  0  0  0  0  0  0  0  0  0  0
    3.4228    0.1919    0.0000 C   0  0  0  0  0  0  0  0  0  0  0  0
    3.9289    1.6039    0.0000 C   0  0  0  0  0  0  0  0  0  0  0  0
    2.9592    2.7482    0.0000 C   0  0  0  0  0  0  0  0  0  0  0  0
    1.4833    2.4806    0.0000 N   0  0  0  0  0  4  0  0  0  0  0  0
    0.5135    3.6249    0.0000 C   0  0  0  0  0  0  0  0  0  0  0  0
   -0.9624    3.3572    0.0000 C   0  0  0  0  0  0  0  0  0  0  0  0
   -1.4686    1.9452    0.0000 C   0  0  0  0  0  0  0  0  0  0  0  0
   -0.4988    0.8009    0.0000 C   0  0  0  0  0  0  0  0  0  0  0  0
   -1.0050   -0.6112    0.0000 C   0  0  0  0  0  0  0  0  0  0  0  0
   -2.4448   -1.0316    0.0000 C   0  0  0  0  0  0  0  0  0  0  0  0
   -3.6313   -0.1139    0.0000 C   0  0  0  0  0  0  0  0  0  0  0  0
   -3.4298    1.3725    0.0000 C   0  0  0  0  0  0  0  0  0  0  0  0
   -4.6163    2.2902    0.0000 C   0  0  0  0  0  0  0  0  0  0  0  0
   -6.0043    1.7215    0.0000 C   0  0  0  0  0  0  0  0  0  0  0  0
   -6.2059    0.2351    0.0000 C   0  0  0  0  0  0  0  0  0  0  0  0
   -5.0194   -0.6826    0.0000 C   0  0  0  0  0  0  0  0  0  0  0  0
   -2.4899   -2.5310    0.0000 N   0  0  0  0  0  0  0  0  0  0  0  0
   -1.0779   -3.0371    0.0000 C   0  0  0  0  0  0  0  0  0  0  0  0
   -0.5092   -4.4251    0.0000 C   0  0  0  0  0  0  0  0  0  0  0  0
    0.9772   -4.6266    0.0000 C   0  0  0  0  0  0  0  0  0  0  0  0
    1.8949   -3.4401    0.0000 C   0  0  0  0  0  0  0  0  0  0  0  0
    1.3263   -2.0521    0.0000 C   0  0  0  0  0  0  0  0  0  0  0  0
   -0.1601   -1.8506    0.0000 C   0  0  0  0  0  0  0  0  0  0  0  0
    0.9771    1.0685    0.0000 C   0  0  0  0  0  0  0  0  0  0  0  0
    5.4049    1.8715    0.0000 C   0  0  0  0  0  0  0  0  0  0  0  0
    6.3746    0.7272    0.0000 C   0  0  0  0  0  0  0  0  0  0  0  0
  1  2  2  0
  2  3  1  0
  3  4  2  0
  4  5  1  0
  5  6  1  0
  6  7  1  0
  7  8  1  0
  8  9  1  0
  9 10  1  0
 10 11  1  1
 11 12  2  0
 12 13  1  0
 13 14  2  0
 14 15  1  0
 15 16  2  0
 16 17  1  0
 17 18  2  0
 12 19  1  0
 19 20  1  0
 20 21  2  0
 21 22  1  0
 22 23  2  0
 23 24  1  0
 24 25  2  0
 10 26  1  0
  4 27  1  0
 27 28  2  0
 28  1  1  0
 26  6  1  0
 25 11  1  0
 18 13  1  0
 25 20  1  0
M  CHG  1   6   1
M  END
> <Identifier>
WOMBAT03

> <hERG>
1

$$$$

     RDKit          2D

 29 32  0  0  0  0  0  0  0  0999 V2000
   -2.6313   -2.9081    0.0000 O   0  0  0  0  0  0  0  0  0  0  0  0
   -2.4823   -1.4155    0.0000 C   0  0  0  0  0  0  0  0  0  0  0  0
   -1.1151   -0.7983    0.0000 C   0  0  0  0  0  0  0  0  0  0  0  0
    0.1029   -1.6737    0.0000 N   0  0  0  0  0  0  0  0  0  0  0  0
    1.4701   -1.0565    0.0000 C   0  0  0  0  0  0  0  0  0  0  0  0
    2.6882   -1.9319    0.0000 C   0  0  0  0  0  0  0  0  0  0  0  0
    2.5391   -3.4245    0.0000 O   0  0  0  0  0  0  0  0  0  0  0  0
    4.0553   -1.3147    0.0000 C   0  0  0  0  0  0  0  0  0  0  0  0
    5.2734   -2.1901    0.0000 C   0  0  0  0  0  0  0  0  0  0  0  0
    6.6405   -1.5729    0.0000 C   0  0  0  0  0  0  0  0  0  0  0  0
    6.7896   -0.0803    0.0000 C   0  0  0  0  0  0  0  0  0  0  0  0
    8.1567    0.5368    0.0000 C   0  0  0  0  0  0  0  0  0  0  0  0
    8.3058    2.0294    0.0000 C   0  0  0  0  0  0  0  0  0  0  0  0
    9.6729    2.6466    0.0000 F   0  0  0  0  0  0  0  0  0  0  0  0
    7.0877    2.9048    0.0000 C   0  0  0  0  0  0  0  0  0  0  0  0
    5.7206    2.2876    0.0000 C   0  0  0  0  0  0  0  0  0  0  0  0
    5.5715    0.7951    0.0000 C   0  0  0  0  0  0  0  0  0  0  0  0
    4.2044    0.1779    0.0000 O   0  0  0  0  0  0  0  0  0  0  0  0
   -3.7003   -0.5401    0.0000 C   0  0  0  0  0  0  0  0  0  0  0  0
   -3.5513    0.9525    0.0000 C   0  0  0  0  0  0  0  0  0  0  0  0
   -4.7693    1.8279    0.0000 C   0  0  0  0  0  0  0  0  0  0  0  0
   -6.1365    1.2107    0.0000 C   0  0  0  0  0  0  0  0  0  0  0  0
   -7.3546    2.0861    0.0000 C   0  0  0  0  0  0  0  0  0  0  0  0
   -8.7217    1.4689    0.0000 C   0  0  0  0  0  0  0  0  0  0  0  0
   -9.9398    2.3443    0.0000 F   0  0  0  0  0  0  0  0  0  0  0  0
   -8.8708   -0.0237    0.0000 C   0  0  0  0  0  0  0  0  0  0  0  0
   -7.6527   -0.8991    0.0000 C   0  0  0  0  0  0  0  0  0  0  0  0
   -6.2856   -0.2819    0.0000 C   0  0  0  0  0  0  0  0  0  0  0  0
   -5.0675   -1.1573    0.0000 O   0  0  0  0  0  0  0  0  0  0  0  0
  2  1  1  1
  2  3  1  0
  3  4  1  0
  4  5  1  0
  5  6  1  0
  6  7  1  6
  6  8  1  0
  8  9  1  6
  9 10  1  0
 10 11  1  0
 11 12  2  0
 12 13  1  0
 13 14  1  0
 13 15  2  0
 15 16  1  0
 16 17  2  0
 17 18  1  0
  2 19  1  0
 19 20  1  6
 20 21  1  0
 21 22  1  0
 22 23  2  0
 23 24  1  0
 24 25  1  0
 24 26  2  0
 26 27  1  0
 27 28  2  0
 28 29  1  0
 18  8  1  0
 29 19  1  0
 17 11  1  0
 28 22  1  0
M  END
> <Identifier>
NEBIVOLOL

> <hERG>
1

$$$$

     RDKit          2D

 36 38  0  0  0  0  0  0  0  0999 V2000
   -7.2789    3.0318    0.0000 C   0  0  0  0  0  0  0  0  0  0  0  0
   -5.8081    3.3264    0.0000 C   0  0  0  0  0  0  0  0  0  0  0  0
   -4.8175    2.2000    0.0000 N   0  0  0  0  0  4  0  0  0  0  0  0
   -5.2978    0.7789    0.0000 C   0  0  0  0  0  0  0  0  0  0  0  0
   -6.7686    0.4843    0.0000 C   0  0  0  0  0  0  0  0  0  0  0  0
   -3.3468    2.4946    0.0000 C   0  0  0  0  0  0  0  0  0  0  0  0
   -2.3562    1.3681    0.0000 C   0  0  0  0  0  0  0  0  0  0  0  0
   -0.8855    1.6627    0.0000 C   0  0  0  0  0  0  0  0  0  0  0  0
    0.1051    0.5363    0.0000 N   0  0  0  0  0  0  0  0  0  0  0  0
    1.5758    0.8308    0.0000 C   0  0  0  0  0  0  0  0  0  0  0  0
    2.5664   -0.2956    0.0000 C   0  0  0  0  0  0  0  0  0  0  0  0
    2.0861   -1.7166    0.0000 O   0  0  0  0  0  0  0  0  0  0  0  0
    4.0372   -0.0010    0.0000 N   0  0  0  0  0  0  0  0  0  0  0  0
    5.0277   -1.1274    0.0000 C   0  0  0  0  0  0  0  0  0  0  0  0
    4.5474   -2.5485    0.0000 C   0  0  0  0  0  0  0  0  0  0  0  0
    5.5379   -3.6749    0.0000 C   0  0  0  0  0  0  0  0  0  0  0  0
    7.0087   -3.3803    0.0000 C   0  0  0  0  0  0  0  0  0  0  0  0
    7.4890   -1.9593    0.0000 C   0  0  0  0  0  0  0  0  0  0  0  0
    6.4985   -0.8329    0.0000 C   0  0  0  0  0  0  0  0  0  0  0  0
    4.5174    1.4200    0.0000 C   0  0  0  0  0  0  0  0  0  0  0  0
    5.9882    1.7146    0.0000 C   0  0  0  0  0  0  0  0  0  0  0  0
    6.4685    3.1357    0.0000 C   0  0  0  0  0  0  0  0  0  0  0  0
    5.4780    4.2621    0.0000 C   0  0  0  0  0  0  0  0  0  0  0  0
    4.0072    3.9675    0.0000 C   0  0  0  0  0  0  0  0  0  0  0  0
    3.5269    2.5465    0.0000 C   0  0  0  0  0  0  0  0  0  0  0  0
   -0.3752   -0.8848    0.0000 C   0  0  0  0  0  0  0  0  0  0  0  0
    0.6153   -2.0112    0.0000 O   0  0  0  0  0  0  0  0  0  0  0  0
   -1.8460   -1.1794    0.0000 C   0  0  0  0  0  0  0  0  0  0  0  0
   -2.8365   -0.0529    0.0000 C   0  0  0  0  0  0  0  0  0  0  0  0
   -4.3073   -0.3475    0.0000 C   0  0  0  0  0  0  0  0  0  0  0  0
   -4.7876   -1.7685    0.0000 C   0  0  0  0  0  0  0  0  0  0  0  0
   -6.2584   -2.0631    0.0000 N   0  0  0  0  0  4  0  0  0  0  0  0
   -6.7386   -3.4842    0.0000 O   0  0  0  0  0  0  0  0  0  0  0  0
   -7.2489   -0.9367    0.0000 O   0  0  0  0  0  1  0  0  0  0  0  0
   -3.7971   -2.8950    0.0000 C   0  0  0  0  0  0  0  0  0  0  0  0
   -2.3263   -2.6004    0.0000 C   0  0  0  0  0  0  0  0  0  0  0  0
  1  2  1  0
  2  3  1  0
  3  4  1  0
  4  5  1  0
  3  6  1  0
  6  7  1  0
  7  8  1  0
  8  9  1  0
  9 10  1  0
 10 11  1  0
 11 12  2  0
 11 13  1  0
 13 14  1  0
 14 15  1  0
 15 16  1  0
 16 17  1  0
 17 18  1  0
 18 19  1  0
 13 20  1  0
 20 21  1  0
 21 22  1  0
 22 23  1  0
 23 24  1  0
 24 25  1  0
  9 26  1  0
 26 27  2  0
 26 28  1  0
 28 29  2  0
 29 30  1  0
 30 31  2  0
 31 32  1  0
 32 33  2  0
 32 34  1  0
 31 35  1  0
 35 36  2  0
 19 14  1  0
 25 20  1  0
 36 28  1  0
M  CHG  3   3   1  32   1  34  -1
M  END
> <Identifier>
AWD_23-111

> <hERG>
1

$$$$

     RDKit          2D

 35 38  0  0  0  0  0  0  0  0999 V2000
  -10.8543    0.8211    0.0000 C   0  0  0  0  0  0  0  0  0  0  0  0
  -10.4065   -0.6105    0.0000 C   0  0  0  0  0  0  0  0  0  0  0  0
   -9.9588   -2.0421    0.0000 C   0  0  0  0  0  0  0  0  0  0  0  0
  -11.8381   -1.0583    0.0000 C   0  0  0  0  0  0  0  0  0  0  0  0
   -8.9749   -0.1627    0.0000 C   0  0  0  0  0  0  0  0  0  0  0  0
   -8.6469    1.3010    0.0000 C   0  0  0  0  0  0  0  0  0  0  0  0
   -7.2153    1.7487    0.0000 C   0  0  0  0  0  0  0  0  0  0  0  0
   -6.1117    0.7328    0.0000 C   0  0  0  0  0  0  0  0  0  0  0  0
   -4.6801    1.1806    0.0000 C   0  0  0  0  0  0  0  0  0  0  0  0
   -4.3521    2.6443    0.0000 O   0  0  0  0  0  0  0  0  0  0  0  0
   -3.5765    0.1647    0.0000 C   0  0  0  0  0  0  0  0  0  0  0  0
   -2.1449    0.6124    0.0000 C   0  0  0  0  0  0  0  0  0  0  0  0
   -1.0413   -0.4035    0.0000 C   0  0  0  0  0  0  0  0  0  0  0  0
    0.3903    0.0443    0.0000 N   0  0  0  0  0  4  0  0  0  0  0  0
    1.4939   -0.9716    0.0000 C   0  0  0  0  0  0  0  0  0  0  0  0
    2.9255   -0.5239    0.0000 C   0  0  0  0  0  0  0  0  0  0  0  0
    3.2535    0.9398    0.0000 C   0  0  0  0  0  0  0  0  0  0  0  0
    4.6851    1.3876    0.0000 O   0  0  0  0  0  0  0  0  0  0  0  0
    5.7887    0.3717    0.0000 C   0  0  0  0  0  0  0  0  0  0  0  0
    7.2203    0.8195    0.0000 C   0  0  0  0  0  0  0  0  0  0  0  0
    8.3239   -0.1965    0.0000 C   0  0  0  0  0  0  0  0  0  0  0  0
    9.7555    0.2513    0.0000 C   0  0  0  0  0  0  0  0  0  0  0  0
   10.0835    1.7150    0.0000 C   0  0  0  0  0  0  0  0  0  0  0  0
    8.9799    2.7309    0.0000 C   0  0  0  0  0  0  0  0  0  0  0  0
    7.5483    2.2832    0.0000 C   0  0  0  0  0  0  0  0  0  0  0  0
    5.4607   -1.0920    0.0000 C   0  0  0  0  0  0  0  0  0  0  0  0
    4.0291   -1.5398    0.0000 C   0  0  0  0  0  0  0  0  0  0  0  0
    3.7010   -3.0035    0.0000 C   0  0  0  0  0  0  0  0  0  0  0  0
    4.8046   -4.0194    0.0000 C   0  0  0  0  0  0  0  0  0  0  0  0
    6.2362   -3.5716    0.0000 C   0  0  0  0  0  0  0  0  0  0  0  0
    6.5643   -2.1079    0.0000 C   0  0  0  0  0  0  0  0  0  0  0  0
    2.1499    1.9558    0.0000 C   0  0  0  0  0  0  0  0  0  0  0  0
    0.7183    1.5080    0.0000 C   0  0  0  0  0  0  0  0  0  0  0  0
   -6.4397   -0.7309    0.0000 C   0  0  0  0  0  0  0  0  0  0  0  0
   -7.8713   -1.1787    0.0000 C   0  0  0  0  0  0  0  0  0  0  0  0
  1  2  1  0
  2  3  1  0
  2  4  1  0
  2  5  1  0
  5  6  2  0
  6  7  1  0
  7  8  2  0
  8  9  1  0
  9 10  2  0
  9 11  1  0
 11 12  1  0
 12 13  1  0
 13 14  1  0
 14 15  1  0
 15 16  1  0
 16 17  1  0
 17 18  1  0
 18 19  1  0
 19 20  1  0
 20 21  2  0
 21 22  1  0
 22 23  2  0
 23 24  1  0
 24 25  2  0
 19 26  1  0
 26 27  2  0
 27 28  1  0
 28 29  2  0
 29 30  1  0
 30 31  2  0
 17 32  1  0
 32 33  1  0
  8 34  1  0
 34 35  2  0
 35  5  1  0
 33 14  1  0
 25 20  1  0
 31 26  1  0
M  CHG  1  14   1
M  END
> <Identifier>
EBASTINE

> <hERG>
1

$$$$

     RDKit          2D

 58 64  0  0  0  0  0  0  0  0999 V2000
    0.6452   -0.7479    0.0000 C   0  0  0  0  0  0  0  0  0  0  0  0
    0.3199    0.7164    0.0000 N   0  0  0  0  0  0  0  0  0  0  0  0
   -1.1109    1.1668    0.0000 C   0  0  0  0  0  0  0  0  0  0  0  0
   -2.2164    0.1529    0.0000 C   0  0  0  0  0  0  0  0  0  0  0  0
   -3.6471    0.6033    0.0000 C   0  0  0  0  0  0  0  0  0  0  0  0
   -3.9725    2.0676    0.0000 O   0  0  0  0  0  0  0  0  0  0  0  0
   -4.7526   -0.4106    0.0000 C   0  0  0  0  0  0  0  0  0  0  0  0
   -6.1834    0.0398    0.0000 C   0  0  0  0  0  0  0  0  0  0  0  0
   -7.2888   -0.9741    0.0000 C   0  0  0  0  0  0  0  0  0  0  0  0
   -6.9635   -2.4384    0.0000 C   0  0  0  0  0  0  0  0  0  0  0  0
   -5.5327   -2.8888    0.0000 C   0  0  0  0  0  0  0  0  0  0  0  0
   -4.4272   -1.8749    0.0000 C   0  0  0  0  0  0  0  0  0  0  0  0
   -1.4363    2.6311    0.0000 C   0  0  0  0  0  0  0  0  0  0  0  0
   -0.3308    3.6450    0.0000 C   0  0  0  0  0  0  0  0  0  0  0  0
    1.1000    3.1946    0.0000 C   0  0  0  0  0  0  0  0  0  0  0  0
    1.4253    1.7303    0.0000 C   0  0  0  0  0  0  0  0  0  0  0  0
    2.8561    1.2800    0.0000 C   0  0  0  0  0  0  0  0  0  0  0  0
    3.1814   -0.1843    0.0000 C   0  0  0  0  0  0  0  0  0  0  0  0
    2.0760   -1.1982    0.0000 O   0  0  0  0  0  0  0  0  0  0  0  0
    4.6122   -0.6347    0.0000 C   0  0  0  0  0  0  0  0  0  0  0  0
    4.9376   -2.0990    0.0000 C   0  0  0  0  0  0  0  0  0  0  0  0
    6.3684   -2.5494    0.0000 C   0  0  0  0  0  0  0  0  0  0  0  0
    7.4738   -1.5355    0.0000 C   0  0  0  0  0  0  0  0  0  0  0  0
    7.1485   -0.0712    0.0000 C   0  0  0  0  0  0  0  0  0  0  0  0
    5.7177    0.3792    0.0000 C   0  0  0  0  0  0  0  0  0  0  0  0
   -9.8976   10.0706    0.0000 C   0  0  0  0  0  0  0  0  0  0  0  0
   -8.9227    8.9306    0.0000 S   0  0  0  0  0  0  0  0  0  0  0  0
   -7.7827    9.9055    0.0000 O   0  0  0  0  0  0  0  0  0  0  0  0
  -10.0626    7.9557    0.0000 O   0  0  0  0  0  0  0  0  0  0  0  0
   -7.9477    7.7906    0.0000 N   0  0  0  0  0  0  0  0  0  0  0  0
   -6.4730    8.0649    0.0000 C   0  0  0  0  0  0  0  0  0  0  0  0
   -5.9732    9.4792    0.0000 C   0  0  0  0  0  0  0  0  0  0  0  0
   -4.4985    9.7535    0.0000 C   0  0  0  0  0  0  0  0  0  0  0  0
   -3.5236    8.6136    0.0000 C   0  0  0  0  0  0  0  0  0  0  0  0
   -4.0234    7.1993    0.0000 C   0  0  0  0  0  0  0  0  0  0  0  0
   -5.4981    6.9250    0.0000 C   0  0  0  0  0  0  0  0  0  0  0  0
   -3.0485    6.0593    0.0000 C   0  0  0  0  0  0  0  0  0  0  0  0
   -3.5483    4.6450    0.0000 O   0  0  0  0  0  0  0  0  0  0  0  0
   -1.5738    6.3336    0.0000 C   0  0  0  0  0  0  0  0  0  0  0  0
   -1.0740    7.7479    0.0000 C   0  0  0  0  0  0  0  0  0  0  0  0
   -0.0991    6.6079    0.0000 C   0  0  0  0  0  0  0  0  0  0  0  0
    1.3756    6.8822    0.0000 C   0  0  0  0  0  0  0  0  0  0  0  0
    1.8754    8.2965    0.0000 N   0  0  0  0  0  0  0  0  0  0  0  0
    3.3501    8.5708    0.0000 C   0  0  0  0  0  0  0  0  0  0  0  0
    3.8499    9.9851    0.0000 C   0  0  0  0  0  0  0  0  0  0  0  0
    5.3246   10.2594    0.0000 C   0  0  0  0  0  0  0  0  0  0  0  0
    6.2995    9.1195    0.0000 C   0  0  0  0  0  0  0  0  0  0  0  0
    7.7742    9.3938    0.0000 C   0  0  0  0  0  0  0  0  0  0  0  0
    8.7491    8.2538    0.0000 C   0  0  0  0  0  0  0  0  0  0  0  0
   10.2238    8.5281    0.0000 C   0  0  0  0  0  0  0  0  0  0  0  0
   11.6985    8.8024    0.0000 N   0  0  0  0  0  0  0  0  0  0  0  0
    8.2493    6.8395    0.0000 C   0  0  0  0  0  0  0  0  0  0  0  0
    6.7746    6.5652    0.0000 C   0  0  0  0  0  0  0  0  0  0  0  0
    5.7997    7.7052    0.0000 C   0  0  0  0  0  0  0  0  0  0  0  0
    4.3250    7.4309    0.0000 C   0  0  0  0  0  0  0  0  0  0  0  0
    0.9005    9.4365    0.0000 C   0  0  0  0  0  0  0  0  0  0  0  0
   -0.5742    9.1622    0.0000 C   0  0  0  0  0  0  0  0  0  0  0  0
   -2.0489    8.8879    0.0000 O   0  0  0  0  0  0  0  0  0  0  0  0
  1  2  1  0
  2  3  1  0
  3  4  1  6
  4  5  1  0
  5  6  1  6
  5  7  1  0
  7  8  2  0
  8  9  1  0
  9 10  2  0
 10 11  1  0
 11 12  2  0
  3 13  1  0
 13 14  1  0
 14 15  1  0
 15 16  1  0
 16 17  1  6
 17 18  1  0
 18 19  2  0
 18 20  1  0
 20 21  2  0
 21 22  1  0
 22 23  2  0
 23 24  1  0
 24 25  2  0
 26 27  1  0
 27 28  2  0
 27 29  2  0
 27 30  1  0
 30 31  1  0
 31 32  2  0
 32 33  1  0
 33 34  2  0
 34 35  1  0
 35 36  2  0
 35 37  1  0
 37 38  2  0
 37 39  1  0
 39 40  1  0
 40 41  1  0
 41 42  1  0
 42 43  1  0
 44 43  1  6
 44 45  1  0
 45 46  1  0
 46 47  1  0
 47 48  2  0
 48 49  1  0
 49 50  1  0
 50 51  3  0
 49 52  2  0
 52 53  1  0
 53 54  2  0
 54 55  1  0
 43 56  1  0
 56 57  1  0
 40 58  1  0
 16  2  1  0
 25 20  1  0
 36 31  1  0
 57 40  1  0
 12  7  1  0
 58 34  1  0
 55 44  1  0
 54 47  1  0
M  END
> <Identifier>
LOBELINE

> <hERG>
1

$$$$

     RDKit          2D

 32 36  0  0  0  0  0  0  0  0999 V2000
   -9.7648   -1.2316    0.0000 O   0  0  0  0  0  0  0  0  0  0  0  0
   -8.8188   -0.0675    0.0000 C   0  0  0  0  0  0  0  0  0  0  0  0
   -9.3540    1.3338    0.0000 C   0  0  0  0  0  0  0  0  0  0  0  0
   -8.4081    2.4979    0.0000 C   0  0  0  0  0  0  0  0  0  0  0  0
   -6.9269    2.2607    0.0000 N   0  0  0  0  0  4  0  0  0  0  0  0
   -6.3917    0.8594    0.0000 C   0  0  0  0  0  0  0  0  0  0  0  0
   -4.9106    0.6223    0.0000 N   0  0  0  0  0  0  0  0  0  0  0  0
   -4.3754   -0.7790    0.0000 C   0  0  0  0  0  0  0  0  0  0  0  0
   -2.8943   -1.0161    0.0000 C   0  0  0  0  0  0  0  0  0  0  0  0
   -2.3591   -2.4174    0.0000 C   0  0  0  0  0  0  0  0  0  0  0  0
   -0.8780   -2.6546    0.0000 C   0  0  0  0  0  0  0  0  0  0  0  0
    0.0680   -1.4904    0.0000 N   0  0  0  0  0  0  0  0  0  0  0  0
    1.5491   -1.7276    0.0000 C   0  0  0  0  0  0  0  0  0  0  0  0
    2.2278   -3.0653    0.0000 N   0  0  0  0  0  0  0  0  0  0  0  0
    3.7098   -2.8331    0.0000 C   0  0  0  0  0  0  0  0  0  0  0  0
    4.8739   -3.7791    0.0000 C   0  0  0  0  0  0  0  0  0  0  0  0
    6.2752   -3.2439    0.0000 C   0  0  0  0  0  0  0  0  0  0  0  0
    6.5123   -1.7627    0.0000 C   0  0  0  0  0  0  0  0  0  0  0  0
    5.3482   -0.8168    0.0000 C   0  0  0  0  0  0  0  0  0  0  0  0
    3.9469   -1.3520    0.0000 C   0  0  0  0  0  0  0  0  0  0  0  0
    2.6116   -0.6687    0.0000 N   0  0  0  0  0  0  0  0  0  0  0  0
    2.3794    0.8132    0.0000 C   0  0  0  0  0  0  0  0  0  0  0  0
    3.5467    1.7552    0.0000 C   0  0  0  0  0  0  0  0  0  0  0  0
    4.9462    1.2153    0.0000 C   0  0  0  0  0  0  0  0  0  0  0  0
    6.1135    2.1573    0.0000 C   0  0  0  0  0  0  0  0  0  0  0  0
    5.8813    3.6392    0.0000 C   0  0  0  0  0  0  0  0  0  0  0  0
    7.0487    4.5812    0.0000 F   0  0  0  0  0  0  0  0  0  0  0  0
    4.4819    4.1791    0.0000 C   0  0  0  0  0  0  0  0  0  0  0  0
    3.3146    3.2371    0.0000 C   0  0  0  0  0  0  0  0  0  0  0  0
   -0.4672   -0.0892    0.0000 C   0  0  0  0  0  0  0  0  0  0  0  0
   -1.9483    0.1480    0.0000 C   0  0  0  0  0  0  0  0  0  0  0  0
   -7.3377   -0.3047    0.0000 N   0  0  0  0  0  0  0  0  0  0  0  0
  1  2  2  0
  2  3  1  0
  3  4  2  0
  4  5  1  0
  5  6  2  0
  6  7  1  0
  7  8  1  0
  8  9  1  0
  9 10  1  0
 10 11  1  0
 11 12  1  0
 12 13  1  0
 13 14  2  0
 14 15  1  0
 15 16  2  0
 16 17  1  0
 17 18  2  0
 18 19  1  0
 19 20  2  0
 20 21  1  0
 21 22  1  0
 22 23  1  0
 23 24  2  0
 24 25  1  0
 25 26  2  0
 26 27  1  0
 26 28  1  0
 28 29  2  0
 12 30  1  0
 30 31  1  0
  6 32  1  0
 32  2  1  0
 31  9  1  0
 21 13  1  0
 29 23  1  0
 20 15  1  0
M  CHG  1   5   1
M  END
> <Identifier>
MISOLASTINE

> <hERG>
1

$$$$

     RDKit          2D

 32 36  0  0  0  0  0  0  0  0999 V2000
   -7.4320    3.0166    0.0000 O   0  0  0  0  0  0  0  0  0  0  0  0
   -6.9546    1.5946    0.0000 C   0  0  0  0  0  0  0  0  0  0  0  0
   -7.8245    0.3726    0.0000 N   0  0  0  0  0  0  0  0  0  0  0  0
   -6.9311   -0.8323    0.0000 C   0  0  0  0  0  0  0  0  0  0  0  0
   -7.2287   -2.3025    0.0000 C   0  0  0  0  0  0  0  0  0  0  0  0
   -6.1044   -3.2954    0.0000 C   0  0  0  0  0  0  0  0  0  0  0  0
   -4.6823   -2.8180    0.0000 C   0  0  0  0  0  0  0  0  0  0  0  0
   -4.3847   -1.3478    0.0000 C   0  0  0  0  0  0  0  0  0  0  0  0
   -5.5091   -0.3550    0.0000 C   0  0  0  0  0  0  0  0  0  0  0  0
   -5.5236    1.1449    0.0000 N   0  0  0  0  0  0  0  0  0  0  0  0
   -4.3187    2.0383    0.0000 C   0  0  0  0  0  0  0  0  0  0  0  0
   -2.9425    1.4415    0.0000 C   0  0  0  0  0  0  0  0  0  0  0  0
   -1.7376    2.3349    0.0000 C   0  0  0  0  0  0  0  0  0  0  0  0
   -0.3615    1.7381    0.0000 N   0  0  0  0  0  0  0  0  0  0  0  0
   -0.1902    0.2479    0.0000 C   0  0  0  0  0  0  0  0  0  0  0  0
    1.1860   -0.3488    0.0000 C   0  0  0  0  0  0  0  0  0  0  0  0
    2.3909    0.5446    0.0000 N   0  0  0  0  0  0  0  0  0  0  0  0
    3.7671   -0.0522    0.0000 C   0  0  0  0  0  0  0  0  0  0  0  0
    3.9383   -1.5424    0.0000 C   0  0  0  0  0  0  0  0  0  0  0  0
    2.7334   -2.4358    0.0000 C   0  0  0  0  0  0  0  0  0  0  0  0
    2.9046   -3.9260    0.0000 C   0  0  0  0  0  0  0  0  0  0  0  0
    4.2808   -4.5228    0.0000 C   0  0  0  0  0  0  0  0  0  0  0  0
    5.4857   -3.6294    0.0000 C   0  0  0  0  0  0  0  0  0  0  0  0
    5.3145   -2.1392    0.0000 C   0  0  0  0  0  0  0  0  0  0  0  0
    4.9720    0.8412    0.0000 C   0  0  0  0  0  0  0  0  0  0  0  0
    6.3481    0.2444    0.0000 C   0  0  0  0  0  0  0  0  0  0  0  0
    7.5531    1.1378    0.0000 C   0  0  0  0  0  0  0  0  0  0  0  0
    7.3818    2.6280    0.0000 C   0  0  0  0  0  0  0  0  0  0  0  0
    6.0056    3.2248    0.0000 C   0  0  0  0  0  0  0  0  0  0  0  0
    4.8007    2.3314    0.0000 C   0  0  0  0  0  0  0  0  0  0  0  0
    2.2196    2.0347    0.0000 C   0  0  0  0  0  0  0  0  0  0  0  0
    0.8435    2.6315    0.0000 C   0  0  0  0  0  0  0  0  0  0  0  0
  1  2  2  0
  2  3  1  0
  3  4  1  0
  4  5  2  0
  5  6  1  0
  6  7  2  0
  7  8  1  0
  8  9  2  0
  9 10  1  0
 10 11  1  0
 11 12  1  0
 12 13  1  0
 13 14  1  0
 14 15  1  0
 15 16  1  0
 16 17  1  0
 17 18  1  0
 18 19  1  0
 19 20  2  0
 20 21  1  0
 21 22  2  0
 22 23  1  0
 23 24  2  0
 18 25  1  0
 25 26  2  0
 26 27  1  0
 27 28  2  0
 28 29  1  0
 29 30  2  0
 17 31  1  0
 31 32  1  0
 10  2  1  0
 32 14  1  0
  9  4  1  0
 24 19  1  0
 30 25  1  0
M  END
> <Identifier>
OXATOMIDE

> <hERG>
1

$$$$

     RDKit          2D

 19 20  0  0  0  0  0  0  0  0999 V2000
   -4.9080    2.2582    0.0000 C   0  0  0  0  0  0  0  0  0  0  0  0
   -3.4178    2.4292    0.0000 N   0  0  0  0  0  0  0  0  0  0  0  0
   -2.8208    3.8053    0.0000 C   0  0  0  0  0  0  0  0  0  0  0  0
   -2.5245    1.2242    0.0000 C   0  0  0  0  0  0  0  0  0  0  0  0
   -1.0343    1.3953    0.0000 C   0  0  0  0  0  0  0  0  0  0  0  0
   -0.1410    0.1903    0.0000 C   0  0  0  0  0  0  0  0  0  0  0  0
    1.3492    0.3613    0.0000 C   0  0  0  0  0  0  0  0  0  0  0  0
    2.2424   -0.8437    0.0000 C   0  0  0  0  0  0  0  0  0  0  0  0
    3.7326   -0.6726    0.0000 C   0  0  0  0  0  0  0  0  0  0  0  0
    4.3296    0.7035    0.0000 C   0  0  0  0  0  0  0  0  0  0  0  0
    5.8198    0.8746    0.0000 Cl  0  0  0  0  0  0  0  0  0  0  0  0
    3.4363    1.9085    0.0000 C   0  0  0  0  0  0  0  0  0  0  0  0
    1.9461    1.7374    0.0000 C   0  0  0  0  0  0  0  0  0  0  0  0
   -0.7380   -1.1858    0.0000 C   0  0  0  0  0  0  0  0  0  0  0  0
   -2.2282   -1.3569    0.0000 C   0  0  0  0  0  0  0  0  0  0  0  0
   -2.8252   -2.7330    0.0000 C   0  0  0  0  0  0  0  0  0  0  0  0
   -1.9319   -3.9380    0.0000 C   0  0  0  0  0  0  0  0  0  0  0  0
   -0.4417   -3.7670    0.0000 C   0  0  0  0  0  0  0  0  0  0  0  0
    0.1553   -2.3909    0.0000 N   0  0  0  0  0  0  0  0  0  0  0  0
  1  2  1  0
  2  3  1  0
  2  4  1  0
  4  5  1  0
  6  5  1  1
  6  7  1  0
  7  8  2  0
  8  9  1  0
  9 10  2  0
 10 11  1  0
 10 12  1  0
 12 13  2  0
  6 14  1  0
 14 15  2  0
 15 16  1  0
 16 17  2  0
 17 18  1  0
 18 19  2  0
 13  7  1  0
 19 14  1  0
M  END
> <Identifier>
CHLOROPHENIRAMINE

> <hERG>
1

$$$$

     RDKit          2D

 24 24  0  0  0  0  0  0  0  0999 V2000
   -9.2763   -3.2079    0.0000 C   0  0  0  0  0  0  0  0  0  0  0  0
   -8.5283   -1.9077    0.0000 C   0  0  0  0  0  0  0  0  0  0  0  0
   -7.0283   -1.9054    0.0000 C   0  0  0  0  0  0  0  0  0  0  0  0
   -6.2803   -0.6052    0.0000 S   0  0  0  0  0  0  0  0  0  0  0  0
   -7.0323    0.6927    0.0000 O   0  0  0  0  0  0  0  0  0  0  0  0
   -4.7803   -0.6028    0.0000 C   0  0  0  0  0  0  0  0  0  0  0  0
   -4.0323    0.6974    0.0000 C   0  0  0  0  0  0  0  0  0  0  0  0
   -2.5323    0.6997    0.0000 C   0  0  0  0  0  0  0  0  0  0  0  0
   -1.7844    1.9999    0.0000 N   0  0  0  0  0  4  0  0  0  0  0  0
   -2.5364    3.2978    0.0000 C   0  0  0  0  0  0  0  0  0  0  0  0
   -4.0364    3.2954    0.0000 C   0  0  0  0  0  0  0  0  0  0  0  0
   -0.2844    2.0022    0.0000 C   0  0  0  0  0  0  0  0  0  0  0  0
    0.4677    0.7044    0.0000 C   0  0  0  0  0  0  0  0  0  0  0  0
   -0.2803   -0.5958    0.0000 O   0  0  0  0  0  0  0  0  0  0  0  0
    1.9677    0.7067    0.0000 C   0  0  0  0  0  0  0  0  0  0  0  0
    2.7197   -0.5912    0.0000 O   0  0  0  0  0  0  0  0  0  0  0  0
    4.2197   -0.5888    0.0000 C   0  0  0  0  0  0  0  0  0  0  0  0
    4.9676    0.7114    0.0000 C   0  0  0  0  0  0  0  0  0  0  0  0
    6.4676    0.7137    0.0000 C   0  0  0  0  0  0  0  0  0  0  0  0
    7.2197   -0.5841    0.0000 C   0  0  0  0  0  0  0  0  0  0  0  0
    8.7197   -0.5818    0.0000 C   0  0  0  0  0  0  0  0  0  0  0  0
   10.2197   -0.5795    0.0000 N   0  0  0  0  0  0  0  0  0  0  0  0
    6.4717   -1.8843    0.0000 C   0  0  0  0  0  0  0  0  0  0  0  0
    4.9717   -1.8867    0.0000 C   0  0  0  0  0  0  0  0  0  0  0  0
  1  2  1  0
  2  3  1  0
  3  4  1  0
  4  5  2  0
  4  6  1  0
  6  7  1  0
  7  8  1  0
  8  9  1  0
  9 10  1  0
 10 11  1  0
  9 12  1  0
 12 13  1  0
 13 14  1  6
 13 15  1  0
 15 16  1  0
 16 17  1  0
 17 18  2  0
 18 19  1  0
 19 20  2  0
 20 21  1  0
 21 22  3  0
 20 23  1  0
 23 24  2  0
 24 17  1  0
M  CHG  1   9   1
M  END
> <Identifier>
ALMOKALANT

> <hERG>
1

$$$$

     RDKit          2D

 32 36  0  0  0  0  0  0  0  0999 V2000
   -9.7648   -1.2316    0.0000 O   0  0  0  0  0  0  0  0  0  0  0  0
   -8.8188   -0.0675    0.0000 C   0  0  0  0  0  0  0  0  0  0  0  0
   -9.3540    1.3338    0.0000 C   0  0  0  0  0  0  0  0  0  0  0  0
   -8.4081    2.4979    0.0000 C   0  0  0  0  0  0  0  0  0  0  0  0
   -6.9269    2.2607    0.0000 N   0  0  0  0  0  0  0  0  0  0  0  0
   -6.3917    0.8594    0.0000 C   0  0  0  0  0  0  0  0  0  0  0  0
   -4.9106    0.6223    0.0000 N   0  0  0  0  0  0  0  0  0  0  0  0
   -4.3754   -0.7790    0.0000 C   0  0  0  0  0  0  0  0  0  0  0  0
   -2.8943   -1.0161    0.0000 C   0  0  0  0  0  0  0  0  0  0  0  0
   -2.3591   -2.4174    0.0000 C   0  0  0  0  0  0  0  0  0  0  0  0
   -0.8780   -2.6546    0.0000 C   0  0  0  0  0  0  0  0  0  0  0  0
    0.0680   -1.4904    0.0000 N   0  0  0  0  0  0  0  0  0  0  0  0
    1.5491   -1.7276    0.0000 C   0  0  0  0  0  0  0  0  0  0  0  0
    2.2278   -3.0653    0.0000 N   0  0  0  0  0  0  0  0  0  0  0  0
    3.7098   -2.8331    0.0000 C   0  0  0  0  0  0  0  0  0  0  0  0
    4.8739   -3.7791    0.0000 C   0  0  0  0  0  0  0  0  0  0  0  0
    6.2752   -3.2439    0.0000 C   0  0  0  0  0  0  0  0  0  0  0  0
    6.5123   -1.7627    0.0000 C   0  0  0  0  0  0  0  0  0  0  0  0
    5.3482   -0.8168    0.0000 C   0  0  0  0  0  0  0  0  0  0  0  0
    3.9469   -1.3520    0.0000 C   0  0  0  0  0  0  0  0  0  0  0  0
    2.6116   -0.6687    0.0000 N   0  0  0  0  0  0  0  0  0  0  0  0
    2.3794    0.8132    0.0000 C   0  0  0  0  0  0  0  0  0  0  0  0
    3.5467    1.7552    0.0000 C   0  0  0  0  0  0  0  0  0  0  0  0
    4.9462    1.2153    0.0000 C   0  0  0  0  0  0  0  0  0  0  0  0
    6.1135    2.1573    0.0000 C   0  0  0  0  0  0  0  0  0  0  0  0
    5.8813    3.6392    0.0000 C   0  0  0  0  0  0  0  0  0  0  0  0
    7.0487    4.5812    0.0000 F   0  0  0  0  0  0  0  0  0  0  0  0
    4.4819    4.1791    0.0000 C   0  0  0  0  0  0  0  0  0  0  0  0
    3.3146    3.2371    0.0000 C   0  0  0  0  0  0  0  0  0  0  0  0
   -0.4672   -0.0892    0.0000 C   0  0  0  0  0  0  0  0  0  0  0  0
   -1.9483    0.1480    0.0000 C   0  0  0  0  0  0  0  0  0  0  0  0
   -7.3377   -0.3047    0.0000 N   0  0  0  0  0  0  0  0  0  0  0  0
  1  2  2  0
  2  3  1  0
  3  4  2  0
  4  5  1  0
  5  6  2  0
  6  7  1  0
  7  8  1  0
  8  9  1  0
  9 10  1  0
 10 11  1  0
 11 12  1  0
 12 13  1  0
 13 14  2  0
 14 15  1  0
 15 16  2  0
 16 17  1  0
 17 18  2  0
 18 19  1  0
 19 20  2  0
 20 21  1  0
 21 22  1  0
 22 23  1  0
 23 24  2  0
 24 25  1  0
 25 26  2  0
 26 27  1  0
 26 28  1  0
 28 29  2  0
 12 30  1  0
 30 31  1  0
  6 32  1  0
 32  2  1  0
 31  9  1  0
 21 13  1  0
 29 23  1  0
 20 15  1  0
M  END
> <Identifier>
2-[({1-[1-(4-Fluorobenzyl)-1H-benzimidazol-2-yl]-4-piperidinyl}methyl)amino]-4(3H)-pyrimidinone

> <hERG>
1

$$$$

     RDKit          2D

 25 26  0  0  0  0  0  0  0  0999 V2000
   -8.1263    2.2991    0.0000 C   0  0  0  0  0  0  0  0  0  0  0  0
   -6.8576    1.4990    0.0000 C   0  0  0  0  0  0  0  0  0  0  0  0
   -5.5302    2.1976    0.0000 C   0  0  0  0  0  0  0  0  0  0  0  0
   -4.2615    1.3975    0.0000 N   0  0  0  0  0  4  0  0  0  0  0  0
   -2.9341    2.0962    0.0000 C   0  0  0  0  0  0  0  0  0  0  0  0
   -1.6654    1.2960    0.0000 C   0  0  0  0  0  0  0  0  0  0  0  0
   -1.7240   -0.2028    0.0000 O   0  0  0  0  0  0  0  0  0  0  0  0
   -0.3381    1.9947    0.0000 C   0  0  0  0  0  0  0  0  0  0  0  0
    0.9307    1.1946    0.0000 O   0  0  0  0  0  0  0  0  0  0  0  0
    2.2580    1.8933    0.0000 C   0  0  0  0  0  0  0  0  0  0  0  0
    2.3166    3.3921    0.0000 C   0  0  0  0  0  0  0  0  0  0  0  0
    3.6440    4.0908    0.0000 C   0  0  0  0  0  0  0  0  0  0  0  0
    4.9127    3.2907    0.0000 C   0  0  0  0  0  0  0  0  0  0  0  0
    4.8541    1.7918    0.0000 C   0  0  0  0  0  0  0  0  0  0  0  0
    3.5268    1.0931    0.0000 C   0  0  0  0  0  0  0  0  0  0  0  0
    3.4682   -0.4058    0.0000 C   0  0  0  0  0  0  0  0  0  0  0  0
    4.7370   -1.2059    0.0000 O   0  0  0  0  0  0  0  0  0  0  0  0
    2.1409   -1.1045    0.0000 C   0  0  0  0  0  0  0  0  0  0  0  0
    2.0823   -2.6033    0.0000 C   0  0  0  0  0  0  0  0  0  0  0  0
    0.7550   -3.3020    0.0000 C   0  0  0  0  0  0  0  0  0  0  0  0
   -0.5138   -2.5018    0.0000 C   0  0  0  0  0  0  0  0  0  0  0  0
   -1.8411   -3.2005    0.0000 C   0  0  0  0  0  0  0  0  0  0  0  0
   -1.8997   -4.6994    0.0000 C   0  0  0  0  0  0  0  0  0  0  0  0
   -0.6309   -5.4996    0.0000 C   0  0  0  0  0  0  0  0  0  0  0  0
    0.6964   -4.8009    0.0000 C   0  0  0  0  0  0  0  0  0  0  0  0
  1  2  1  0
  2  3  1  0
  3  4  1  0
  4  5  1  0
  5  6  1  0
  6  7  1  6
  6  8  1  0
  8  9  1  0
  9 10  1  0
 10 11  2  0
 11 12  1  0
 12 13  2  0
 13 14  1  0
 14 15  2  0
 15 16  1  0
 16 17  2  0
 16 18  1  0
 18 19  1  0
 19 20  1  0
 20 21  2  0
 21 22  1  0
 22 23  2  0
 23 24  1  0
 24 25  2  0
 15 10  1  0
 25 20  1  0
M  CHG  1   4   1
M  END
> <Identifier>
PROPAFENONE

> <hERG>
1

$$$$

     RDKit          2D

 30 33  0  0  0  0  0  0  0  0999 V2000
    1.9074   -3.8722    0.0000 N   0  0  0  0  0  0  0  0  0  0  0  0
    0.5038   -3.3433    0.0000 C   0  0  0  0  0  0  0  0  0  0  0  0
   -0.8999   -2.8144    0.0000 C   0  0  0  0  0  0  0  0  0  0  0  0
   -2.0597   -3.7656    0.0000 C   0  0  0  0  0  0  0  0  0  0  0  0
   -3.4634   -3.2367    0.0000 C   0  0  0  0  0  0  0  0  0  0  0  0
   -3.7072   -1.7566    0.0000 C   0  0  0  0  0  0  0  0  0  0  0  0
   -5.1109   -1.2277    0.0000 C   0  0  0  0  0  0  0  0  0  0  0  0
   -5.3547    0.2523    0.0000 N   0  0  0  0  0  0  0  0  0  0  0  0
   -6.6954    0.9250    0.0000 C   0  0  0  0  0  0  0  0  0  0  0  0
   -6.4699    2.4080    0.0000 N   0  0  0  0  0  0  0  0  0  0  0  0
   -4.9898    2.6518    0.0000 C   0  0  0  0  0  0  0  0  0  0  0  0
   -4.3006    1.3195    0.0000 C   0  0  0  0  0  0  0  0  0  0  0  0
   -2.8176    1.0940    0.0000 C   0  0  0  0  0  0  0  0  0  0  0  0
   -1.8809    2.2655    0.0000 N   0  0  0  0  0  4  0  0  0  0  0  0
   -0.3979    2.0400    0.0000 C   0  0  0  0  0  0  0  0  0  0  0  0
    0.6562    3.1072    0.0000 C   0  0  0  0  0  0  0  0  0  0  0  0
    1.9969    2.4345    0.0000 C   0  0  0  0  0  0  0  0  0  0  0  0
    1.7714    0.9516    0.0000 N   0  0  0  0  0  0  0  0  0  0  0  0
    2.8386   -0.1025    0.0000 C   0  0  0  0  0  0  0  0  0  0  0  0
    4.2850    0.2946    0.0000 C   0  0  0  0  0  0  0  0  0  0  0  0
    4.6643    1.7459    0.0000 C   0  0  0  0  0  0  0  0  0  0  0  0
    6.1108    2.1431    0.0000 C   0  0  0  0  0  0  0  0  0  0  0  0
    7.1779    1.0890    0.0000 C   0  0  0  0  0  0  0  0  0  0  0  0
    6.7987   -0.3623    0.0000 C   0  0  0  0  0  0  0  0  0  0  0  0
    7.8659   -1.4164    0.0000 Cl  0  0  0  0  0  0  0  0  0  0  0  0
    5.3522   -0.7594    0.0000 C   0  0  0  0  0  0  0  0  0  0  0  0
    0.2913    0.7078    0.0000 C   0  0  0  0  0  0  0  0  0  0  0  0
   -0.3814   -0.6329    0.0000 O   0  0  0  0  0  0  0  0  0  0  0  0
   -2.5473   -0.8055    0.0000 C   0  0  0  0  0  0  0  0  0  0  0  0
   -1.1437   -1.3344    0.0000 C   0  0  0  0  0  0  0  0  0  0  0  0
  1  2  3  0
  2  3  1  0
  3  4  2  0
  4  5  1  0
  5  6  2  0
  6  7  1  0
  7  8  1  0
  8  9  1  0
  9 10  2  0
 10 11  1  0
 11 12  2  0
 12 13  1  0
 13 14  1  0
 15 14  1  6
 15 16  1  0
 16 17  1  0
 17 18  1  0
 18 19  1  0
 19 20  1  0
 20 21  2  0
 21 22  1  0
 22 23  2  0
 23 24  1  0
 24 25  1  0
 24 26  2  0
 18 27  1  0
 27 28  2  0
  6 29  1  0
 29 30  2  0
 30  3  1  0
 12  8  1  0
 27 15  1  0
 26 20  1  0
M  CHG  1  14   1
M  END
> <Identifier>
WOMBAT56

> <hERG>
1

$$$$

     RDKit          2D

 35 38  0  0  0  0  0  0  0  0999 V2000
   -9.9263   -1.9121    0.0000 C   0  0  0  0  0  0  0  0  0  0  0  0
  -10.2923   -0.4574    0.0000 C   0  0  0  0  0  0  0  0  0  0  0  0
  -10.6582    0.9973    0.0000 C   0  0  0  0  0  0  0  0  0  0  0  0
  -11.7469   -0.8233    0.0000 O   0  0  0  0  0  0  0  0  0  0  0  0
   -8.8376   -0.0914    0.0000 C   0  0  0  0  0  0  0  0  0  0  0  0
   -8.4272    1.3513    0.0000 C   0  0  0  0  0  0  0  0  0  0  0  0
   -6.9725    1.7173    0.0000 C   0  0  0  0  0  0  0  0  0  0  0  0
   -5.9282    0.6405    0.0000 C   0  0  0  0  0  0  0  0  0  0  0  0
   -4.4736    1.0064    0.0000 C   0  0  0  0  0  0  0  0  0  0  0  0
   -4.0631    2.4492    0.0000 O   0  0  0  0  0  0  0  0  0  0  0  0
   -3.4293   -0.0704    0.0000 C   0  0  0  0  0  0  0  0  0  0  0  0
   -1.9746    0.2955    0.0000 C   0  0  0  0  0  0  0  0  0  0  0  0
   -0.9304   -0.7813    0.0000 C   0  0  0  0  0  0  0  0  0  0  0  0
    0.5243   -0.4153    0.0000 N   0  0  0  0  0  0  0  0  0  0  0  0
    1.5686   -1.4921    0.0000 C   0  0  0  0  0  0  0  0  0  0  0  0
    3.0232   -1.1262    0.0000 C   0  0  0  0  0  0  0  0  0  0  0  0
    3.4337    0.3166    0.0000 C   0  0  0  0  0  0  0  0  0  0  0  0
    4.8883    0.6825    0.0000 C   0  0  0  0  0  0  0  0  0  0  0  0
    4.5224    2.1372    0.0000 O   0  0  0  0  0  0  0  0  0  0  0  0
    6.3430    1.0485    0.0000 C   0  0  0  0  0  0  0  0  0  0  0  0
    7.3873   -0.0283    0.0000 C   0  0  0  0  0  0  0  0  0  0  0  0
    8.8419    0.3376    0.0000 C   0  0  0  0  0  0  0  0  0  0  0  0
    9.2524    1.7804    0.0000 C   0  0  0  0  0  0  0  0  0  0  0  0
    8.2081    2.8572    0.0000 C   0  0  0  0  0  0  0  0  0  0  0  0
    6.7534    2.4912    0.0000 C   0  0  0  0  0  0  0  0  0  0  0  0
    5.2543   -0.7722    0.0000 C   0  0  0  0  0  0  0  0  0  0  0  0
    4.1775   -1.8164    0.0000 C   0  0  0  0  0  0  0  0  0  0  0  0
    4.5434   -3.2711    0.0000 C   0  0  0  0  0  0  0  0  0  0  0  0
    5.9862   -3.6815    0.0000 C   0  0  0  0  0  0  0  0  0  0  0  0
    7.0630   -2.6372    0.0000 C   0  0  0  0  0  0  0  0  0  0  0  0
    6.6970   -1.1826    0.0000 C   0  0  0  0  0  0  0  0  0  0  0  0
    2.3894    1.3934    0.0000 C   0  0  0  0  0  0  0  0  0  0  0  0
    0.9347    1.0274    0.0000 C   0  0  0  0  0  0  0  0  0  0  0  0
   -6.3387   -0.8023    0.0000 C   0  0  0  0  0  0  0  0  0  0  0  0
   -7.7933   -1.1683    0.0000 C   0  0  0  0  0  0  0  0  0  0  0  0
  1  2  1  0
  2  3  1  0
  2  4  1  0
  2  5  1  0
  5  6  2  0
  6  7  1  0
  7  8  2  0
  8  9  1  0
  9 10  1  6
  9 11  1  0
 11 12  1  0
 12 13  1  0
 13 14  1  0
 14 15  1  0
 15 16  1  0
 16 17  1  0
 17 18  1  0
 18 19  1  0
 18 20  1  0
 20 21  2  0
 21 22  1  0
 22 23  2  0
 23 24  1  0
 24 25  2  0
 18 26  1  0
 26 27  2  0
 27 28  1  0
 28 29  2  0
 29 30  1  0
 30 31  2  0
 17 32  1  0
 32 33  1  0
  8 34  1  0
 34 35  2  0
 35  5  1  0
 33 14  1  0
 25 20  1  0
 31 26  1  0
M  END
> <Identifier>
BMCL20031829_11

> <hERG>
1

$$$$

     RDKit          2D

 22 23  0  0  0  0  0  0  0  0999 V2000
   -7.0918   -0.3366    0.0000 C   0  0  0  0  0  0  0  0  0  0  0  0
   -5.9155   -1.2675    0.0000 N   0  0  0  0  0  4  0  0  0  0  0  0
   -4.5213   -0.7142    0.0000 C   0  0  0  0  0  0  0  0  0  0  0  0
   -3.3450   -1.6450    0.0000 C   0  0  0  0  0  0  0  0  0  0  0  0
   -1.9508   -1.0917    0.0000 C   0  0  0  0  0  0  0  0  0  0  0  0
   -0.7745   -2.0226    0.0000 O   0  0  0  0  0  0  0  0  0  0  0  0
    0.6197   -1.4693    0.0000 C   0  0  0  0  0  0  0  0  0  0  0  0
    1.7960   -2.4001    0.0000 C   0  0  0  0  0  0  0  0  0  0  0  0
    3.1902   -1.8468    0.0000 C   0  0  0  0  0  0  0  0  0  0  0  0
    3.4082   -0.3628    0.0000 C   0  0  0  0  0  0  0  0  0  0  0  0
    4.8024    0.1905    0.0000 C   0  0  0  0  0  0  0  0  0  0  0  0
    6.1967    0.7438    0.0000 F   0  0  0  0  0  0  0  0  0  0  0  0
    5.3557   -1.2037    0.0000 F   0  0  0  0  0  0  0  0  0  0  0  0
    4.2492    1.5847    0.0000 F   0  0  0  0  0  0  0  0  0  0  0  0
    2.2319    0.5681    0.0000 C   0  0  0  0  0  0  0  0  0  0  0  0
    0.8377    0.0148    0.0000 C   0  0  0  0  0  0  0  0  0  0  0  0
   -1.7328    0.3923    0.0000 C   0  0  0  0  0  0  0  0  0  0  0  0
   -0.3386    0.9456    0.0000 C   0  0  0  0  0  0  0  0  0  0  0  0
   -0.1206    2.4297    0.0000 C   0  0  0  0  0  0  0  0  0  0  0  0
   -1.2968    3.3605    0.0000 C   0  0  0  0  0  0  0  0  0  0  0  0
   -2.6911    2.8072    0.0000 C   0  0  0  0  0  0  0  0  0  0  0  0
   -2.9091    1.3231    0.0000 C   0  0  0  0  0  0  0  0  0  0  0  0
  1  2  1  0
  2  3  1  0
  3  4  1  0
  5  4  1  6
  5  6  1  0
  6  7  1  0
  7  8  2  0
  8  9  1  0
  9 10  2  0
 10 11  1  0
 11 12  1  0
 11 13  1  0
 11 14  1  0
 10 15  1  0
 15 16  2  0
  5 17  1  0
 17 18  2  0
 18 19  1  0
 19 20  2  0
 20 21  1  0
 21 22  2  0
 16  7  1  0
 22 17  1  0
M  CHG  1   2   1
M  END
> <Identifier>
FLUOXETINE

> <hERG>
1

$$$$

     RDKit          2D

 23 25  0  0  0  0  0  0  0  0999 V2000
   -1.5621   -3.5877    0.0000 C   0  0  0  0  0  0  0  0  0  0  0  0
   -0.9633   -2.2124    0.0000 C   0  0  0  0  0  0  0  0  0  0  0  0
   -1.8549   -1.0062    0.0000 C   0  0  0  0  0  0  0  0  0  0  0  0
   -3.3454   -1.1752    0.0000 N   0  0  0  0  0  0  0  0  0  0  0  0
   -4.2370    0.0310    0.0000 C   0  0  0  0  0  0  0  0  0  0  0  0
   -3.9442   -2.5505    0.0000 C   0  0  0  0  0  0  0  0  0  0  0  0
    0.5271   -2.0434    0.0000 C   0  0  0  0  0  0  0  0  0  0  0  0
    1.1259   -0.6681    0.0000 N   0  0  0  0  0  0  0  0  0  0  0  0
    2.6164   -0.4990    0.0000 C   0  0  0  0  0  0  0  0  0  0  0  0
    3.5080   -1.7053    0.0000 C   0  0  0  0  0  0  0  0  0  0  0  0
    4.9985   -1.5362    0.0000 C   0  0  0  0  0  0  0  0  0  0  0  0
    5.5973   -0.1609    0.0000 C   0  0  0  0  0  0  0  0  0  0  0  0
    4.7056    1.0453    0.0000 C   0  0  0  0  0  0  0  0  0  0  0  0
    3.2152    0.8763    0.0000 C   0  0  0  0  0  0  0  0  0  0  0  0
    2.3236    2.0825    0.0000 S   0  0  0  0  0  0  0  0  0  0  0  0
    0.8331    1.9134    0.0000 C   0  0  0  0  0  0  0  0  0  0  0  0
   -0.0585    3.1197    0.0000 C   0  0  0  0  0  0  0  0  0  0  0  0
   -1.5489    2.9506    0.0000 C   0  0  0  0  0  0  0  0  0  0  0  0
   -2.1478    1.5753    0.0000 C   0  0  0  0  0  0  0  0  0  0  0  0
   -3.6382    1.4063    0.0000 C   0  0  0  0  0  0  0  0  0  0  0  0
   -5.1286    1.2372    0.0000 N   0  0  0  0  0  0  0  0  0  0  0  0
   -1.2561    0.3691    0.0000 C   0  0  0  0  0  0  0  0  0  0  0  0
    0.2343    0.5382    0.0000 C   0  0  0  0  0  0  0  0  0  0  0  0
  2  1  1  6
  2  3  1  0
  3  4  1  0
  4  5  1  0
  4  6  1  0
  2  7  1  0
  7  8  1  0
  8  9  1  0
  9 10  2  0
 10 11  1  0
 11 12  2  0
 12 13  1  0
 13 14  2  0
 14 15  1  0
 15 16  1  0
 16 17  2  0
 17 18  1  0
 18 19  2  0
 19 20  1  0
 20 21  3  0
 19 22  1  0
 22 23  2  0
 23  8  1  0
 14  9  1  0
 23 16  1  0
M  END
> <Identifier>
CYAMEMAZINE (RACEMATE)

> <hERG>
1

$$$$

     RDKit          2D

 34 37  0  0  0  0  0  0  0  0999 V2000
   -5.4631   -5.3548    0.0000 N   0  0  0  0  0  0  0  0  0  0  0  0
   -5.3674   -3.8579    0.0000 C   0  0  0  0  0  0  0  0  0  0  0  0
   -5.2717   -2.3609    0.0000 C   0  0  0  0  0  0  0  0  0  0  0  0
   -6.5202   -1.5296    0.0000 C   0  0  0  0  0  0  0  0  0  0  0  0
   -6.4245   -0.0326    0.0000 C   0  0  0  0  0  0  0  0  0  0  0  0
   -5.0803    0.6330    0.0000 C   0  0  0  0  0  0  0  0  0  0  0  0
   -4.9846    2.1299    0.0000 C   0  0  0  0  0  0  0  0  0  0  0  0
   -3.6404    2.7955    0.0000 N   0  0  0  0  0  0  0  0  0  0  0  0
   -3.3887    4.2742    0.0000 C   0  0  0  0  0  0  0  0  0  0  0  0
   -1.9046    4.4919    0.0000 N   0  0  0  0  0  0  0  0  0  0  0  0
   -1.2390    3.1476    0.0000 C   0  0  0  0  0  0  0  0  0  0  0  0
   -2.3118    2.0992    0.0000 C   0  0  0  0  0  0  0  0  0  0  0  0
   -2.0941    0.6151    0.0000 C   0  0  0  0  0  0  0  0  0  0  0  0
   -0.7000    0.0615    0.0000 N   0  0  0  0  0  4  0  0  0  0  0  0
   -0.4824   -1.4227    0.0000 C   0  0  0  0  0  0  0  0  0  0  0  0
    0.9117   -1.9762    0.0000 C   0  0  0  0  0  0  0  0  0  0  0  0
    1.1293   -3.4604    0.0000 C   0  0  0  0  0  0  0  0  0  0  0  0
    2.5234   -4.0140    0.0000 N   0  0  0  0  0  4  0  0  0  0  0  0
    0.4765    0.9920    0.0000 C   0  0  0  0  0  0  0  0  0  0  0  0
    0.4152    2.4908    0.0000 C   0  0  0  0  0  0  0  0  0  0  0  0
    1.8216    3.0122    0.0000 C   0  0  0  0  0  0  0  0  0  0  0  0
    2.7521    1.8357    0.0000 N   0  0  0  0  0  0  0  0  0  0  0  0
    4.2509    1.8970    0.0000 C   0  0  0  0  0  0  0  0  0  0  0  0
    5.0534    0.6297    0.0000 C   0  0  0  0  0  0  0  0  0  0  0  0
    4.3571   -0.6989    0.0000 C   0  0  0  0  0  0  0  0  0  0  0  0
    5.1595   -1.9662    0.0000 C   0  0  0  0  0  0  0  0  0  0  0  0
    6.6583   -1.9049    0.0000 C   0  0  0  0  0  0  0  0  0  0  0  0
    7.3546   -0.5763    0.0000 C   0  0  0  0  0  0  0  0  0  0  0  0
    8.8533   -0.5150    0.0000 Cl  0  0  0  0  0  0  0  0  0  0  0  0
    6.5521    0.6910    0.0000 C   0  0  0  0  0  0  0  0  0  0  0  0
    1.9208    0.5872    0.0000 C   0  0  0  0  0  0  0  0  0  0  0  0
    2.4422   -0.8193    0.0000 O   0  0  0  0  0  0  0  0  0  0  0  0
   -3.8318   -0.1984    0.0000 C   0  0  0  0  0  0  0  0  0  0  0  0
   -3.9274   -1.6953    0.0000 C   0  0  0  0  0  0  0  0  0  0  0  0
  1  2  3  0
  2  3  1  0
  3  4  2  0
  4  5  1  0
  5  6  2  0
  6  7  1  0
  7  8  1  0
  8  9  1  0
  9 10  2  0
 10 11  1  0
 11 12  2  0
 12 13  1  0
 13 14  1  0
 14 15  1  0
 15 16  1  0
 16 17  1  0
 17 18  1  0
 19 14  1  6
 19 20  1  0
 20 21  1  0
 21 22  1  0
 22 23  1  0
 23 24  1  0
 24 25  2  0
 25 26  1  0
 26 27  2  0
 27 28  1  0
 28 29  1  0
 28 30  2  0
 22 31  1  0
 31 32  2  0
  6 33  1  0
 33 34  2  0
 34  3  1  0
 12  8  1  0
 31 19  1  0
 30 24  1  0
M  CHG  2  14   1  18   1
M  END
> <Identifier>
WOMBAT61

> <hERG>
1

$$$$

     RDKit          2D

 21 23  0  0  0  0  0  0  0  0999 V2000
   -3.1193   -3.1539    0.0000 N   0  0  0  0  0  0  0  0  0  0  0  0
   -2.2640   -1.9216    0.0000 C   0  0  0  0  0  0  0  0  0  0  0  0
   -0.7644   -1.8893    0.0000 N   0  0  0  0  0  0  0  0  0  0  0  0
   -0.3317   -0.4530    0.0000 C   0  0  0  0  0  0  0  0  0  0  0  0
    1.0251    0.1865    0.0000 C   0  0  0  0  0  0  0  0  0  0  0  0
    2.2574   -0.6688    0.0000 C   0  0  0  0  0  0  0  0  0  0  0  0
    3.6142   -0.0292    0.0000 O   0  0  0  0  0  0  0  0  0  0  0  0
    4.8465   -0.8845    0.0000 C   0  0  0  0  0  0  0  0  0  0  0  0
    6.2033   -0.2450    0.0000 N   0  0  0  0  0  0  0  0  0  0  0  0
    4.7219   -2.3793    0.0000 O   0  0  0  0  0  0  0  0  0  0  0  0
    1.1497    1.6814    0.0000 N   0  0  0  0  0  0  0  0  0  0  0  0
   -0.0826    2.5366    0.0000 C   0  0  0  0  0  0  0  0  0  0  0  0
    0.0420    4.0315    0.0000 N   0  0  0  0  0  0  0  0  0  0  0  0
   -1.4394    1.8971    0.0000 N   0  0  0  0  0  0  0  0  0  0  0  0
   -1.0655    1.4896    0.0000 C   0  0  0  0  0  0  0  0  0  0  0  0
   -1.7093    1.1670    0.0000 C   0  0  0  0  0  0  0  0  0  0  0  0
   -1.1278    0.7422    0.0000 C   0  0  0  0  0  0  0  0  0  0  0  0
   -4.3810   -0.5807    0.0000 O   0  0  0  0  0  0  0  0  0  0  0  0
   -3.2528   -1.4236    0.0000 O   0  0  0  0  0  0  0  0  0  0  0  0
   -1.5640    0.4023    0.0000 C   0  0  0  0  0  0  0  0  0  0  0  0
   -2.7582   -0.5054    0.0000 N   0  0  0  0  0  0  0  0  0  0  0  0
  1  2  2  0
  2  3  1  0
  4  3  1  6
  4  5  1  0
  5  6  1  1
  6  7  1  0
  7  8  1  0
  8  9  1  0
  8 10  2  0
  5 11  1  0
 11 12  1  0
 12 13  2  0
 12 14  1  0
 14 15  1  0
 15 16  1  0
 16 17  1  0
 17 18  1  0
 17 19  1  0
 17 20  1  0
 20 21  1  1
 21  2  1  0
 20  4  1  0
 20 14  1  0
M  END
> <Identifier>
SAXITOXIN

> <hERG>
1

$$$$

     RDKit          2D

 27 31  0  0  0  0  0  0  0  0999 V2000
   -6.8025   -1.9667    0.0000 F   0  0  0  0  0  0  0  0  0  0  0  0
   -5.4277   -1.3669    0.0000 C   0  0  0  0  0  0  0  0  0  0  0  0
   -5.2597    0.1236    0.0000 C   0  0  0  0  0  0  0  0  0  0  0  0
   -3.8848    0.7234    0.0000 C   0  0  0  0  0  0  0  0  0  0  0  0
   -2.6780   -0.1674    0.0000 C   0  0  0  0  0  0  0  0  0  0  0  0
   -1.2084    0.1335    0.0000 C   0  0  0  0  0  0  0  0  0  0  0  0
   -0.5880    1.4992    0.0000 C   0  0  0  0  0  0  0  0  0  0  0  0
    0.9049    1.6447    0.0000 C   0  0  0  0  0  0  0  0  0  0  0  0
    1.5253    3.0104    0.0000 N   0  0  0  0  0  4  0  0  0  0  0  0
    0.6527    4.2306    0.0000 C   0  0  0  0  0  0  0  0  0  0  0  0
   -0.8402    4.0850    0.0000 C   0  0  0  0  0  0  0  0  0  0  0  0
   -1.4606    2.7193    0.0000 C   0  0  0  0  0  0  0  0  0  0  0  0
   -2.9535    2.5737    0.0000 F   0  0  0  0  0  0  0  0  0  0  0  0
   -0.4682   -1.1712    0.0000 C   0  0  0  0  0  0  0  0  0  0  0  0
    1.0223   -1.3392    0.0000 C   0  0  0  0  0  0  0  0  0  0  0  0
    1.6221   -2.7140    0.0000 C   0  0  0  0  0  0  0  0  0  0  0  0
    3.1127   -2.8820    0.0000 C   0  0  0  0  0  0  0  0  0  0  0  0
    4.0035   -1.6752    0.0000 C   0  0  0  0  0  0  0  0  0  0  0  0
    5.4940   -1.8432    0.0000 C   0  0  0  0  0  0  0  0  0  0  0  0
    6.3848   -0.6363    0.0000 C   0  0  0  0  0  0  0  0  0  0  0  0
    5.7850    0.7386    0.0000 C   0  0  0  0  0  0  0  0  0  0  0  0
    4.2945    0.9066    0.0000 C   0  0  0  0  0  0  0  0  0  0  0  0
    3.4037   -0.3003    0.0000 C   0  0  0  0  0  0  0  0  0  0  0  0
    1.9131   -0.1323    0.0000 C   0  0  0  0  0  0  0  0  0  0  0  0
   -1.4803   -2.2783    0.0000 N   0  0  0  0  0  0  0  0  0  0  0  0
   -2.8460   -1.6579    0.0000 C   0  0  0  0  0  0  0  0  0  0  0  0
   -4.2208   -2.2577    0.0000 C   0  0  0  0  0  0  0  0  0  0  0  0
  1  2  1  0
  2  3  2  0
  3  4  1  0
  4  5  2  0
  5  6  1  0
  7  6  1  1
  7  8  1  0
  8  9  1  0
  9 10  1  0
 10 11  1  0
 11 12  1  0
 12 13  1  1
  6 14  2  0
 14 15  1  0
 15 16  2  0
 16 17  1  0
 17 18  2  0
 18 19  1  0
 19 20  2  0
 20 21  1  0
 21 22  2  0
 22 23  1  0
 23 24  2  0
 14 25  1  0
 25 26  1  0
 26 27  2  0
 27  2  1  0
 26  5  1  0
 12  7  1  0
 24 15  1  0
 23 18  1  0
M  CHG  1   9   1
M  END
> <Identifier>
WOMBAT34

> <hERG>
1

$$$$

     RDKit          2D

 30 33  0  0  0  0  0  0  0  0999 V2000
   10.1209    2.4982    0.0000 C   0  0  0  0  0  0  0  0  0  0  0  0
    8.7725    1.8410    0.0000 O   0  0  0  0  0  0  0  0  0  0  0  0
    8.6674    0.3447    0.0000 C   0  0  0  0  0  0  0  0  0  0  0  0
    9.9107   -0.4945    0.0000 C   0  0  0  0  0  0  0  0  0  0  0  0
    9.8057   -1.9908    0.0000 C   0  0  0  0  0  0  0  0  0  0  0  0
    8.4573   -2.6480    0.0000 C   0  0  0  0  0  0  0  0  0  0  0  0
    7.2140   -1.8088    0.0000 C   0  0  0  0  0  0  0  0  0  0  0  0
    7.3190   -0.3125    0.0000 C   0  0  0  0  0  0  0  0  0  0  0  0
    6.0757    0.5267    0.0000 O   0  0  0  0  0  0  0  0  0  0  0  0
    4.7274   -0.1305    0.0000 C   0  0  0  0  0  0  0  0  0  0  0  0
    3.4840    0.7087    0.0000 C   0  0  0  0  0  0  0  0  0  0  0  0
    2.1357    0.0515    0.0000 N   0  0  0  0  0  0  0  0  0  0  0  0
    0.8923    0.8906    0.0000 C   0  0  0  0  0  0  0  0  0  0  0  0
   -0.4560    0.2335    0.0000 C   0  0  0  0  0  0  0  0  0  0  0  0
   -0.5611   -1.2628    0.0000 O   0  0  0  0  0  0  0  0  0  0  0  0
   -1.6993    1.0726    0.0000 C   0  0  0  0  0  0  0  0  0  0  0  0
   -3.0477    0.4155    0.0000 O   0  0  0  0  0  0  0  0  0  0  0  0
   -4.2910    1.2546    0.0000 C   0  0  0  0  0  0  0  0  0  0  0  0
   -4.1860    2.7509    0.0000 C   0  0  0  0  0  0  0  0  0  0  0  0
   -5.4293    3.5901    0.0000 C   0  0  0  0  0  0  0  0  0  0  0  0
   -6.7777    2.9329    0.0000 C   0  0  0  0  0  0  0  0  0  0  0  0
   -6.8827    1.4366    0.0000 C   0  0  0  0  0  0  0  0  0  0  0  0
   -8.0650    0.5135    0.0000 N   0  0  0  0  0  0  0  0  0  0  0  0
   -7.5524   -0.8962    0.0000 C   0  0  0  0  0  0  0  0  0  0  0  0
   -8.2570   -2.2204    0.0000 C   0  0  0  0  0  0  0  0  0  0  0  0
   -7.4625   -3.4927    0.0000 C   0  0  0  0  0  0  0  0  0  0  0  0
   -5.9634   -3.4408    0.0000 C   0  0  0  0  0  0  0  0  0  0  0  0
   -5.2588   -2.1166    0.0000 C   0  0  0  0  0  0  0  0  0  0  0  0
   -6.0533   -0.8443    0.0000 C   0  0  0  0  0  0  0  0  0  0  0  0
   -5.6394    0.5975    0.0000 C   0  0  0  0  0  0  0  0  0  0  0  0
  1  2  1  0
  2  3  1  0
  3  4  2  0
  4  5  1  0
  5  6  2  0
  6  7  1  0
  7  8  2  0
  8  9  1  0
  9 10  1  0
 10 11  1  0
 11 12  1  0
 12 13  1  0
 13 14  1  0
 14 15  1  1
 14 16  1  0
 16 17  1  0
 17 18  1  0
 18 19  2  0
 19 20  1  0
 20 21  2  0
 21 22  1  0
 22 23  1  0
 23 24  1  0
 24 25  2  0
 25 26  1  0
 26 27  2  0
 27 28  1  0
 28 29  2  0
 29 30  1  0
  8  3  1  0
 30 18  1  0
 30 22  2  0
 29 24  1  0
M  END
> <Identifier>
CARVEDILOL (RACEMATE)

> <hERG>
1

$$$$

     RDKit          2D

 29 33  0  0  0  0  0  0  0  0999 V2000
    8.0604    0.2446    0.0000 C   0  0  0  0  0  0  0  0  0  0  0  0
    7.2573   -1.0223    0.0000 C   0  0  0  0  0  0  0  0  0  0  0  0
    5.7586   -0.9602    0.0000 C   0  0  0  0  0  0  0  0  0  0  0  0
    5.0630    0.3688    0.0000 C   0  0  0  0  0  0  0  0  0  0  0  0
    3.5643    0.4309    0.0000 C   0  0  0  0  0  0  0  0  0  0  0  0
    2.8687    1.7598    0.0000 C   0  0  0  0  0  0  0  0  0  0  0  0
    1.3700    1.8219    0.0000 N   0  0  0  0  0  4  0  0  0  0  0  0
    0.6744    3.1509    0.0000 C   0  0  0  0  0  0  0  0  0  0  0  0
   -0.8243    3.2130    0.0000 C   0  0  0  0  0  0  0  0  0  0  0  0
   -1.6274    1.9461    0.0000 C   0  0  0  0  0  0  0  0  0  0  0  0
   -0.9319    0.6171    0.0000 C   0  0  0  0  0  0  0  0  0  0  0  0
   -1.7350   -0.6498    0.0000 C   0  0  0  0  0  0  0  0  0  0  0  0
   -3.2320   -0.7447    0.0000 C   0  0  0  0  0  0  0  0  0  0  0  0
   -4.1887    0.4106    0.0000 C   0  0  0  0  0  0  0  0  0  0  0  0
   -3.6665    1.8168    0.0000 C   0  0  0  0  0  0  0  0  0  0  0  0
   -4.6232    2.9721    0.0000 C   0  0  0  0  0  0  0  0  0  0  0  0
   -6.1021    2.7212    0.0000 C   0  0  0  0  0  0  0  0  0  0  0  0
   -6.6242    1.3151    0.0000 C   0  0  0  0  0  0  0  0  0  0  0  0
   -5.6675    0.1598    0.0000 C   0  0  0  0  0  0  0  0  0  0  0  0
   -3.6043   -2.1977    0.0000 N   0  0  0  0  0  0  0  0  0  0  0  0
   -2.3374   -3.0009    0.0000 C   0  0  0  0  0  0  0  0  0  0  0  0
   -2.0865   -4.4797    0.0000 C   0  0  0  0  0  0  0  0  0  0  0  0
   -0.6804   -5.0019    0.0000 C   0  0  0  0  0  0  0  0  0  0  0  0
    0.4749   -4.0452    0.0000 C   0  0  0  0  0  0  0  0  0  0  0  0
    0.2241   -2.5663    0.0000 C   0  0  0  0  0  0  0  0  0  0  0  0
   -1.1821   -2.0442    0.0000 C   0  0  0  0  0  0  0  0  0  0  0  0
    0.5669    0.5550    0.0000 C   0  0  0  0  0  0  0  0  0  0  0  0
    5.8661    1.6357    0.0000 C   0  0  0  0  0  0  0  0  0  0  0  0
    7.3648    1.5736    0.0000 C   0  0  0  0  0  0  0  0  0  0  0  0
  1  2  2  0
  2  3  1  0
  3  4  2  0
  4  5  1  0
  5  6  1  0
  6  7  1  0
  7  8  1  0
  8  9  1  0
  9 10  1  0
 10 11  1  0
 11 12  1  1
 12 13  2  0
 13 14  1  0
 14 15  2  0
 15 16  1  0
 16 17  2  0
 17 18  1  0
 18 19  2  0
 13 20  1  0
 20 21  1  0
 21 22  2  0
 22 23  1  0
 23 24  2  0
 24 25  1  0
 25 26  2  0
 11 27  1  0
  4 28  1  0
 28 29  2  0
 29  1  1  0
 27  7  1  0
 26 12  1  0
 19 14  1  0
 26 21  1  0
M  CHG  1   7   1
M  END
> <Identifier>
WOMBAT04

> <hERG>
1

$$$$

     RDKit          2D

 27 29  0  0  0  0  0  0  0  0999 V2000
   -4.2911    4.4345    0.0000 C   0  0  0  0  0  0  0  0  0  0  0  0
   -4.2049    2.9370    0.0000 C   0  0  0  0  0  0  0  0  0  0  0  0
   -5.4588    2.1136    0.0000 C   0  0  0  0  0  0  0  0  0  0  0  0
   -2.8650    2.2628    0.0000 C   0  0  0  0  0  0  0  0  0  0  0  0
   -2.7788    0.7653    0.0000 O   0  0  0  0  0  0  0  0  0  0  0  0
   -1.4388    0.0912    0.0000 C   0  0  0  0  0  0  0  0  0  0  0  0
   -1.3526   -1.4063    0.0000 C   0  0  0  0  0  0  0  0  0  0  0  0
   -0.0126   -2.0805    0.0000 C   0  0  0  0  0  0  0  0  0  0  0  0
    1.2412   -1.2571    0.0000 N   0  0  0  0  0  0  0  0  0  0  0  0
    2.5811   -1.9312    0.0000 C   0  0  0  0  0  0  0  0  0  0  0  0
    3.8349   -1.1078    0.0000 C   0  0  0  0  0  0  0  0  0  0  0  0
    5.1749   -1.7819    0.0000 C   0  0  0  0  0  0  0  0  0  0  0  0
    6.4287   -0.9585    0.0000 C   0  0  0  0  0  0  0  0  0  0  0  0
    6.3425    0.5390    0.0000 C   0  0  0  0  0  0  0  0  0  0  0  0
    5.0026    1.2131    0.0000 C   0  0  0  0  0  0  0  0  0  0  0  0
    3.7488    0.3897    0.0000 C   0  0  0  0  0  0  0  0  0  0  0  0
    1.1550    0.2405    0.0000 C   0  0  0  0  0  0  0  0  0  0  0  0
    2.4088    1.0638    0.0000 C   0  0  0  0  0  0  0  0  0  0  0  0
    2.3226    2.5614    0.0000 C   0  0  0  0  0  0  0  0  0  0  0  0
    0.9826    3.2355    0.0000 C   0  0  0  0  0  0  0  0  0  0  0  0
   -0.2712    2.4121    0.0000 C   0  0  0  0  0  0  0  0  0  0  0  0
   -0.1850    0.9146    0.0000 C   0  0  0  0  0  0  0  0  0  0  0  0
   -2.6064   -2.2297    0.0000 N   0  0  0  0  0  4  0  0  0  0  0  0
   -2.6773   -3.7281    0.0000 C   0  0  0  0  0  0  0  0  0  0  0  0
   -4.1241   -4.1237    0.0000 C   0  0  0  0  0  0  0  0  0  0  0  0
   -4.9475   -2.8699    0.0000 C   0  0  0  0  0  0  0  0  0  0  0  0
   -4.0095   -1.6994    0.0000 C   0  0  0  0  0  0  0  0  0  0  0  0
  1  2  1  0
  2  3  1  0
  2  4  1  0
  4  5  1  0
  5  6  1  0
  7  6  1  1
  7  8  1  0
  8  9  1  0
  9 10  1  0
 10 11  1  0
 11 12  2  0
 12 13  1  0
 13 14  2  0
 14 15  1  0
 15 16  2  0
  9 17  1  0
 17 18  2  0
 18 19  1  0
 19 20  2  0
 20 21  1  0
 21 22  2  0
  7 23  1  0
 23 24  1  0
 24 25  1  0
 25 26  1  0
 26 27  1  0
 16 11  1  0
 22 17  1  0
 27 23  1  0
M  CHG  1  23   1
M  END
> <Identifier>
BEPRIDIL

> <hERG>
1

$$$$

     RDKit          2D

 26 29  0  0  0  0  0  0  0  0999 V2000
   -1.8783   -3.2712    0.0000 C   0  0  0  0  0  0  0  0  0  0  0  0
   -3.0849   -2.3800    0.0000 N   0  0  0  0  0  4  0  0  0  0  0  0
   -4.4599   -2.9793    0.0000 C   0  0  0  0  0  0  0  0  0  0  0  0
   -5.6665   -2.0881    0.0000 C   0  0  0  0  0  0  0  0  0  0  0  0
   -5.4980   -0.5976    0.0000 C   0  0  0  0  0  0  0  0  0  0  0  0
   -4.1229    0.0017    0.0000 C   0  0  0  0  0  0  0  0  0  0  0  0
   -2.9163   -0.8895    0.0000 C   0  0  0  0  0  0  0  0  0  0  0  0
   -1.5413   -0.2902    0.0000 C   0  0  0  0  0  0  0  0  0  0  0  0
   -0.3347   -1.1814    0.0000 C   0  0  0  0  0  0  0  0  0  0  0  0
    1.0404   -0.5821    0.0000 N   0  0  0  0  0  0  0  0  0  0  0  0
    2.2469   -1.4733    0.0000 C   0  0  0  0  0  0  0  0  0  0  0  0
    2.0784   -2.9638    0.0000 C   0  0  0  0  0  0  0  0  0  0  0  0
    3.2849   -3.8550    0.0000 C   0  0  0  0  0  0  0  0  0  0  0  0
    4.6600   -3.2557    0.0000 C   0  0  0  0  0  0  0  0  0  0  0  0
    4.8285   -1.7652    0.0000 C   0  0  0  0  0  0  0  0  0  0  0  0
    3.6220   -0.8740    0.0000 C   0  0  0  0  0  0  0  0  0  0  0  0
    3.7905    0.6165    0.0000 S   0  0  0  0  0  0  0  0  0  0  0  0
    2.5840    1.5077    0.0000 C   0  0  0  0  0  0  0  0  0  0  0  0
    2.7525    2.9982    0.0000 C   0  0  0  0  0  0  0  0  0  0  0  0
    1.5460    3.8894    0.0000 C   0  0  0  0  0  0  0  0  0  0  0  0
    0.1709    3.2901    0.0000 C   0  0  0  0  0  0  0  0  0  0  0  0
   -1.0357    4.1813    0.0000 S   0  0  0  0  0  0  0  0  0  0  0  0
   -0.8671    5.6718    0.0000 C   0  0  0  0  0  0  0  0  0  0  0  0
   -2.4107    3.5820    0.0000 O   0  0  0  0  0  0  0  0  0  0  0  0
    0.0024    1.7996    0.0000 C   0  0  0  0  0  0  0  0  0  0  0  0
    1.2089    0.9084    0.0000 C   0  0  0  0  0  0  0  0  0  0  0  0
  1  2  1  0
  2  3  1  0
  3  4  1  0
  4  5  1  0
  5  6  1  0
  6  7  1  0
  7  8  1  6
  8  9  1  0
  9 10  1  0
 10 11  1  0
 11 12  2  0
 12 13  1  0
 13 14  2  0
 14 15  1  0
 15 16  2  0
 16 17  1  0
 17 18  1  0
 18 19  2  0
 19 20  1  0
 20 21  2  0
 21 22  1  0
 22 23  1  0
 22 24  2  0
 21 25  1  0
 25 26  2  0
  7  2  1  0
 26 10  1  0
 16 11  1  0
 26 18  1  0
M  CHG  1   2   1
M  END
> <Identifier>
MESORIDAZINE

> <hERG>
1

$$$$

     RDKit          2D

 21 23  0  0  0  0  0  0  0  0999 V2000
    2.7537   -0.5082    0.0000 C   0  0  0  0  0  0  0  0  0  0  0  0
    3.3772   -0.0116    0.0000 N   0  0  0  0  0  4  0  0  0  0  0  0
    4.6832   -0.7495    0.0000 C   0  0  0  0  0  0  0  0  0  0  0  0
    5.7885    0.2645    0.0000 C   0  0  0  0  0  0  0  0  0  0  0  0
    5.1657    1.6291    0.0000 C   0  0  0  0  0  0  0  0  0  0  0  0
    3.6754    1.4585    0.0000 C   0  0  0  0  0  0  0  0  0  0  0  0
    2.2398    0.9912    0.0000 C   0  0  0  0  0  0  0  0  0  0  0  0
    2.0969   -0.5019    0.0000 C   0  0  0  0  0  0  0  0  0  0  0  0
    0.7323   -1.1247    0.0000 O   0  0  0  0  0  0  0  0  0  0  0  0
   -0.4893   -0.2544    0.0000 C   0  0  0  0  0  0  0  0  0  0  0  0
   -0.3464    1.2388    0.0000 O   0  0  0  0  0  0  0  0  0  0  0  0
   -1.8539   -0.8772    0.0000 C   0  0  0  0  0  0  0  0  0  0  0  0
   -1.9968   -2.3704    0.0000 C   0  0  0  0  0  0  0  0  0  0  0  0
   -3.3614   -2.9932    0.0000 O   0  0  0  0  0  0  0  0  0  0  0  0
   -3.0756   -0.0068    0.0000 C   0  0  0  0  0  0  0  0  0  0  0  0
   -2.9327    1.4863    0.0000 C   0  0  0  0  0  0  0  0  0  0  0  0
   -4.1543    2.3567    0.0000 C   0  0  0  0  0  0  0  0  0  0  0  0
   -5.5189    1.7339    0.0000 C   0  0  0  0  0  0  0  0  0  0  0  0
   -5.6618    0.2407    0.0000 C   0  0  0  0  0  0  0  0  0  0  0  0
   -4.4402   -0.6296    0.0000 C   0  0  0  0  0  0  0  0  0  0  0  0
    3.3186   -1.3723    0.0000 C   0  0  0  0  0  0  0  0  0  0  0  0
  1  2  1  0
  2  3  1  0
  3  4  1  1
  4  5  1  0
  6  5  1  1
  6  7  1  0
  7  8  1  0
  8  9  1  0
  9 10  1  0
 10 11  2  0
 10 12  1  0
 12 13  1  1
 13 14  1  0
 12 15  1  0
 15 16  2  0
 16 17  1  0
 17 18  2  0
 18 19  1  0
 19 20  2  0
  8 21  1  0
  6  2  1  0
 20 15  1  0
 21  3  1  0
M  CHG  1   2   1
M  END
> <Identifier>
ATROPINE

> <hERG>
1

$$$$

     RDKit          2D

 34 38  0  0  0  0  0  0  0  0999 V2000
    9.0017    0.8221    0.0000 O   0  0  0  0  0  0  0  0  0  0  0  0
    8.9480    2.3211    0.0000 C   0  0  0  0  0  0  0  0  0  0  0  0
   10.2193    3.1171    0.0000 O   0  0  0  0  0  0  0  0  0  0  0  0
    7.6229    3.0241    0.0000 C   0  0  0  0  0  0  0  0  0  0  0  0
    6.3516    2.2281    0.0000 C   0  0  0  0  0  0  0  0  0  0  0  0
    6.4053    0.7290    0.0000 C   0  0  0  0  0  0  0  0  0  0  0  0
    5.1339   -0.0670    0.0000 C   0  0  0  0  0  0  0  0  0  0  0  0
    3.8089    0.6360    0.0000 C   0  0  0  0  0  0  0  0  0  0  0  0
    2.5375   -0.1600    0.0000 N   0  0  0  0  0  0  0  0  0  0  0  0
    1.1462    0.4006    0.0000 C   0  0  0  0  0  0  0  0  0  0  0  0
    0.1831   -0.7493    0.0000 C   0  0  0  0  0  0  0  0  0  0  0  0
   -1.3133   -0.6461    0.0000 C   0  0  0  0  0  0  0  0  0  0  0  0
   -1.9721    0.7015    0.0000 C   0  0  0  0  0  0  0  0  0  0  0  0
   -3.4686    0.8048    0.0000 C   0  0  0  0  0  0  0  0  0  0  0  0
   -4.3062   -0.4395    0.0000 N   0  0  0  0  0  0  0  0  0  0  0  0
   -5.8027   -0.3362    0.0000 C   0  0  0  0  0  0  0  0  0  0  0  0
   -6.4615    1.0113    0.0000 C   0  0  0  0  0  0  0  0  0  0  0  0
   -7.9579    1.1146    0.0000 N   0  0  0  0  0  0  0  0  0  0  0  0
   -8.9210   -0.0353    0.0000 C   0  0  0  0  0  0  0  0  0  0  0  0
  -10.3123    0.5253    0.0000 C   0  0  0  0  0  0  0  0  0  0  0  0
  -10.2090    2.0218    0.0000 N   0  0  0  0  0  0  0  0  0  0  0  0
   -8.7539    2.3860    0.0000 C   0  0  0  0  0  0  0  0  0  0  0  0
   -8.1933    3.7773    0.0000 O   0  0  0  0  0  0  0  0  0  0  0  0
   -3.6474   -1.7871    0.0000 C   0  0  0  0  0  0  0  0  0  0  0  0
   -2.1510   -1.8904    0.0000 C   0  0  0  0  0  0  0  0  0  0  0  0
    0.9791   -2.0207    0.0000 C   0  0  0  0  0  0  0  0  0  0  0  0
    0.5670   -3.4630    0.0000 C   0  0  0  0  0  0  0  0  0  0  0  0
    1.6100   -4.5410    0.0000 C   0  0  0  0  0  0  0  0  0  0  0  0
    1.1978   -5.9833    0.0000 Cl  0  0  0  0  0  0  0  0  0  0  0  0
    3.0651   -4.1768    0.0000 C   0  0  0  0  0  0  0  0  0  0  0  0
    3.4772   -2.7345    0.0000 C   0  0  0  0  0  0  0  0  0  0  0  0
    2.4342   -1.6565    0.0000 C   0  0  0  0  0  0  0  0  0  0  0  0
    3.7551    2.1350    0.0000 C   0  0  0  0  0  0  0  0  0  0  0  0
    5.0265    2.9311    0.0000 C   0  0  0  0  0  0  0  0  0  0  0  0
  1  2  2  0
  2  3  1  0
  2  4  1  0
  4  5  1  0
  5  6  2  0
  6  7  1  0
  7  8  2  0
  8  9  1  0
  9 10  1  0
 10 11  2  0
 11 12  1  0
 12 13  1  0
 13 14  1  0
 14 15  1  0
 15 16  1  0
 16 17  1  0
 17 18  1  0
 18 19  1  0
 19 20  1  0
 20 21  1  0
 21 22  1  0
 22 23  2  0
 15 24  1  0
 24 25  1  0
 11 26  1  0
 26 27  2  0
 27 28  1  0
 28 29  1  0
 28 30  2  0
 30 31  1  0
 31 32  2  0
  8 33  1  0
 33 34  2  0
 34  5  1  0
 32  9  1  0
 25 12  1  0
 32 26  1  0
 22 18  1  0
M  END
> <Identifier>
BMCL20031829_04

> <hERG>
1

$$$$

     RDKit          2D

 33 37  0  0  0  0  0  0  0  0999 V2000
    7.9474   -3.1456    0.0000 C   0  0  0  0  0  0  0  0  0  0  0  0
    8.2182   -1.6703    0.0000 O   0  0  0  0  0  0  0  0  0  0  0  0
    7.0759   -0.6981    0.0000 C   0  0  0  0  0  0  0  0  0  0  0  0
    5.6628   -1.2012    0.0000 C   0  0  0  0  0  0  0  0  0  0  0  0
    4.5205   -0.2290    0.0000 C   0  0  0  0  0  0  0  0  0  0  0  0
    3.1074   -0.7321    0.0000 N   0  0  0  0  0  0  0  0  0  0  0  0
    1.9651    0.2401    0.0000 C   0  0  0  0  0  0  0  0  0  0  0  0
    0.5520   -0.2631    0.0000 N   0  0  0  0  0  0  0  0  0  0  0  0
   -0.5902    0.7091    0.0000 C   0  0  0  0  0  0  0  0  0  0  0  0
   -2.0033    0.2060    0.0000 C   0  0  0  0  0  0  0  0  0  0  0  0
   -2.2741   -1.2694    0.0000 N   0  0  0  0  0  0  0  0  0  0  0  0
   -3.6872   -1.7725    0.0000 C   0  0  0  0  0  0  0  0  0  0  0  0
   -3.9581   -3.2479    0.0000 O   0  0  0  0  0  0  0  0  0  0  0  0
   -4.8295   -0.8003    0.0000 C   0  0  0  0  0  0  0  0  0  0  0  0
   -4.5587    0.6750    0.0000 C   0  0  0  0  0  0  0  0  0  0  0  0
   -5.7010    1.6472    0.0000 O   0  0  0  0  0  0  0  0  0  0  0  0
   -7.1141    1.1441    0.0000 C   0  0  0  0  0  0  0  0  0  0  0  0
   -8.2564    2.1163    0.0000 C   0  0  0  0  0  0  0  0  0  0  0  0
   -9.6695    1.6132    0.0000 C   0  0  0  0  0  0  0  0  0  0  0  0
   -9.9403    0.1378    0.0000 C   0  0  0  0  0  0  0  0  0  0  0  0
   -8.7980   -0.8344    0.0000 C   0  0  0  0  0  0  0  0  0  0  0  0
   -7.3849   -0.3312    0.0000 C   0  0  0  0  0  0  0  0  0  0  0  0
   -6.2426   -1.3035    0.0000 O   0  0  0  0  0  0  0  0  0  0  0  0
   -1.1319   -2.2416    0.0000 C   0  0  0  0  0  0  0  0  0  0  0  0
    0.2812   -1.7384    0.0000 C   0  0  0  0  0  0  0  0  0  0  0  0
    2.2360    1.7154    0.0000 N   0  0  0  0  0  0  0  0  0  0  0  0
    3.6491    2.2186    0.0000 C   0  0  0  0  0  0  0  0  0  0  0  0
    3.9199    3.6939    0.0000 N   0  0  0  0  0  0  0  0  0  0  0  0
    4.7913    1.2464    0.0000 C   0  0  0  0  0  0  0  0  0  0  0  0
    6.2044    1.7495    0.0000 C   0  0  0  0  0  0  0  0  0  0  0  0
    7.3467    0.7773    0.0000 C   0  0  0  0  0  0  0  0  0  0  0  0
    8.7598    1.2804    0.0000 O   0  0  0  0  0  0  0  0  0  0  0  0
    9.9021    0.3082    0.0000 C   0  0  0  0  0  0  0  0  0  0  0  0
  1  2  1  0
  2  3  1  0
  3  4  2  0
  4  5  1  0
  5  6  2  0
  6  7  1  0
  7  8  1  0
  8  9  1  0
  9 10  1  0
 10 11  1  0
 11 12  1  0
 12 13  2  0
 14 12  1  6
 14 15  1  0
 15 16  1  0
 16 17  1  0
 17 18  2  0
 18 19  1  0
 19 20  2  0
 20 21  1  0
 21 22  2  0
 22 23  1  0
 11 24  1  0
 24 25  1  0
  7 26  2  0
 26 27  1  0
 27 28  1  0
 27 29  2  0
 29 30  1  0
 30 31  2  0
 31 32  1  0
 32 33  1  0
 31  3  1  0
 29  5  1  0
 25  8  1  0
 23 14  1  0
 22 17  1  0
M  END
> <Identifier>
DOXAZOSIN

> <hERG>
1

$$$$

     RDKit          2D

 25 27  0  0  0  0  0  0  0  0999 V2000
    2.1480   -3.2230    0.0000 C   0  0  0  0  0  0  0  0  0  0  0  0
    2.7583   -1.8528    0.0000 C   0  0  0  0  0  0  0  0  0  0  0  0
    4.2502   -1.6963    0.0000 C   0  0  0  0  0  0  0  0  0  0  0  0
    4.8605   -0.3261    0.0000 C   0  0  0  0  0  0  0  0  0  0  0  0
    6.3524   -0.1696    0.0000 C   0  0  0  0  0  0  0  0  0  0  0  0
    6.9627    1.2006    0.0000 C   0  0  0  0  0  0  0  0  0  0  0  0
    6.0813    2.4143    0.0000 C   0  0  0  0  0  0  0  0  0  0  0  0
    4.5895    2.2578    0.0000 C   0  0  0  0  0  0  0  0  0  0  0  0
    3.9791    0.8876    0.0000 C   0  0  0  0  0  0  0  0  0  0  0  0
    1.8769   -0.6391    0.0000 N   0  0  0  0  0  4  0  0  0  0  0  0
    0.3851   -0.7956    0.0000 C   0  0  0  0  0  0  0  0  0  0  0  0
   -0.4963    0.4182    0.0000 C   0  0  0  0  0  0  0  0  0  0  0  0
   -1.9881    0.2617    0.0000 C   0  0  0  0  0  0  0  0  0  0  0  0
   -2.8696    1.4754    0.0000 C   0  0  0  0  0  0  0  0  0  0  0  0
   -2.2592    2.8456    0.0000 C   0  0  0  0  0  0  0  0  0  0  0  0
   -3.1406    4.0593    0.0000 C   0  0  0  0  0  0  0  0  0  0  0  0
   -4.6324    3.9028    0.0000 C   0  0  0  0  0  0  0  0  0  0  0  0
   -5.2428    2.5326    0.0000 C   0  0  0  0  0  0  0  0  0  0  0  0
   -4.3614    1.3189    0.0000 C   0  0  0  0  0  0  0  0  0  0  0  0
   -2.5985   -1.1085    0.0000 C   0  0  0  0  0  0  0  0  0  0  0  0
   -4.0903   -1.2650    0.0000 C   0  0  0  0  0  0  0  0  0  0  0  0
   -4.7007   -2.6352    0.0000 C   0  0  0  0  0  0  0  0  0  0  0  0
   -3.8193   -3.8489    0.0000 C   0  0  0  0  0  0  0  0  0  0  0  0
   -2.3275   -3.6924    0.0000 C   0  0  0  0  0  0  0  0  0  0  0  0
   -1.7171   -2.3222    0.0000 C   0  0  0  0  0  0  0  0  0  0  0  0
  2  1  1  1
  2  3  1  0
  3  4  1  0
  4  5  2  0
  5  6  1  0
  6  7  2  0
  7  8  1  0
  8  9  2  0
  2 10  1  0
 10 11  1  0
 11 12  1  0
 12 13  1  0
 13 14  1  0
 14 15  2  0
 15 16  1  0
 16 17  2  0
 17 18  1  0
 18 19  2  0
 13 20  1  0
 20 21  2  0
 21 22  1  0
 22 23  2  0
 23 24  1  0
 24 25  2  0
  9  4  1  0
 19 14  1  0
 25 20  1  0
M  CHG  1  10   1
M  END
> <Identifier>
PRENYLAMINE

> <hERG>
1

$$$$

     RDKit          2D

 26 28  0  0  0  0  0  0  0  0999 V2000
   -3.1895   -3.5841    0.0000 C   0  0  0  0  0  0  0  0  0  0  0  0
   -2.8510   -2.1228    0.0000 O   0  0  0  0  0  0  0  0  0  0  0  0
   -3.9472   -1.0990    0.0000 C   0  0  0  0  0  0  0  0  0  0  0  0
   -5.3820   -1.5365    0.0000 C   0  0  0  0  0  0  0  0  0  0  0  0
   -6.4783   -0.5126    0.0000 C   0  0  0  0  0  0  0  0  0  0  0  0
   -7.9131   -0.9501    0.0000 N   0  0  0  0  0  0  0  0  0  0  0  0
   -6.1397    0.9487    0.0000 C   0  0  0  0  0  0  0  0  0  0  0  0
   -7.2360    1.9725    0.0000 Cl  0  0  0  0  0  0  0  0  0  0  0  0
   -4.7049    1.3861    0.0000 C   0  0  0  0  0  0  0  0  0  0  0  0
   -3.6087    0.3623    0.0000 C   0  0  0  0  0  0  0  0  0  0  0  0
   -2.1739    0.7997    0.0000 C   0  0  0  0  0  0  0  0  0  0  0  0
   -1.8353    2.2610    0.0000 O   0  0  0  0  0  0  0  0  0  0  0  0
   -1.0776   -0.2241    0.0000 N   0  0  0  0  0  0  0  0  0  0  0  0
    0.3571    0.2134    0.0000 C   0  0  0  0  0  0  0  0  0  0  0  0
    1.4534   -0.8105    0.0000 C   0  0  0  0  0  0  0  0  0  0  0  0
    2.8882   -0.3730    0.0000 C   0  0  0  0  0  0  0  0  0  0  0  0
    3.2267    1.0883    0.0000 N   0  0  0  0  0  0  0  0  0  0  0  0
    4.6615    1.5257    0.0000 C   0  0  0  0  0  0  0  0  0  0  0  0
    5.7578    0.5019    0.0000 C   0  0  0  0  0  0  0  0  0  0  0  0
    5.4192   -0.9594    0.0000 C   0  0  0  0  0  0  0  0  0  0  0  0
    6.5155   -1.9833    0.0000 C   0  0  0  0  0  0  0  0  0  0  0  0
    7.9503   -1.5458    0.0000 C   0  0  0  0  0  0  0  0  0  0  0  0
    8.2888   -0.0845    0.0000 C   0  0  0  0  0  0  0  0  0  0  0  0
    7.1926    0.9393    0.0000 C   0  0  0  0  0  0  0  0  0  0  0  0
    2.1305    2.1121    0.0000 C   0  0  0  0  0  0  0  0  0  0  0  0
    0.6957    1.6747    0.0000 C   0  0  0  0  0  0  0  0  0  0  0  0
  1  2  1  0
  2  3  1  0
  3  4  2  0
  4  5  1  0
  5  6  1  0
  5  7  2  0
  7  8  1  0
  7  9  1  0
  9 10  2  0
 10 11  1  0
 11 12  2  0
 11 13  1  0
 13 14  1  0
 14 15  1  0
 15 16  1  0
 16 17  1  0
 17 18  1  0
 18 19  1  0
 19 20  2  0
 20 21  1  0
 21 22  2  0
 22 23  1  0
 23 24  2  0
 17 25  1  0
 25 26  1  0
 10  3  1  0
 26 14  1  0
 24 19  1  0
M  END
> <Identifier>
CLEBOPRIDE

> <hERG>
1

$$$$

     RDKit          2D

 26 28  0  0  0  0  0  0  0  0999 V2000
   -9.8176    1.4325    0.0000 O   0  0  0  0  0  0  0  0  0  0  0  0
   -8.8374    0.2970    0.0000 C   0  0  0  0  0  0  0  0  0  0  0  0
   -7.3640    0.5783    0.0000 C   0  0  0  0  0  0  0  0  0  0  0  0
   -6.3837   -0.5571    0.0000 O   0  0  0  0  0  0  0  0  0  0  0  0
   -4.9103   -0.2759    0.0000 C   0  0  0  0  0  0  0  0  0  0  0  0
   -3.9301   -1.4113    0.0000 C   0  0  0  0  0  0  0  0  0  0  0  0
   -2.4567   -1.1301    0.0000 N   0  0  0  0  0  0  0  0  0  0  0  0
   -1.9635    0.2865    0.0000 C   0  0  0  0  0  0  0  0  0  0  0  0
   -0.4901    0.5677    0.0000 C   0  0  0  0  0  0  0  0  0  0  0  0
    0.4901   -0.5677    0.0000 N   0  0  0  0  0  0  0  0  0  0  0  0
    1.9635   -0.2865    0.0000 C   0  0  0  0  0  0  0  0  0  0  0  0
    2.9438   -1.4219    0.0000 C   0  0  0  0  0  0  0  0  0  0  0  0
    2.4506   -2.8385    0.0000 C   0  0  0  0  0  0  0  0  0  0  0  0
    3.4308   -3.9739    0.0000 C   0  0  0  0  0  0  0  0  0  0  0  0
    4.9042   -3.6927    0.0000 C   0  0  0  0  0  0  0  0  0  0  0  0
    5.3974   -2.2761    0.0000 C   0  0  0  0  0  0  0  0  0  0  0  0
    4.4172   -1.1407    0.0000 C   0  0  0  0  0  0  0  0  0  0  0  0
    2.4567    1.1301    0.0000 C   0  0  0  0  0  0  0  0  0  0  0  0
    3.9301    1.4113    0.0000 C   0  0  0  0  0  0  0  0  0  0  0  0
    4.4233    2.8279    0.0000 C   0  0  0  0  0  0  0  0  0  0  0  0
    3.4430    3.9633    0.0000 C   0  0  0  0  0  0  0  0  0  0  0  0
    3.9362    5.3800    0.0000 Cl  0  0  0  0  0  0  0  0  0  0  0  0
    1.9696    3.6821    0.0000 C   0  0  0  0  0  0  0  0  0  0  0  0
    1.4765    2.2655    0.0000 C   0  0  0  0  0  0  0  0  0  0  0  0
   -0.0030   -1.9843    0.0000 C   0  0  0  0  0  0  0  0  0  0  0  0
   -1.4765   -2.2655    0.0000 C   0  0  0  0  0  0  0  0  0  0  0  0
  1  2  1  0
  2  3  1  0
  3  4  1  0
  4  5  1  0
  5  6  1  0
  6  7  1  0
  7  8  1  0
  8  9  1  0
  9 10  1  0
 11 10  1  1
 11 12  1  0
 12 13  2  0
 13 14  1  0
 14 15  2  0
 15 16  1  0
 16 17  2  0
 11 18  1  0
 18 19  2  0
 19 20  1  0
 20 21  2  0
 21 22  1  0
 21 23  1  0
 23 24  2  0
 10 25  1  0
 25 26  1  0
 26  7  1  0
 17 12  1  0
 24 18  1  0
M  END
> <Identifier>
HYDROXIZINE

> <hERG>
1

$$$$

     RDKit          2D

 30 33  0  0  0  0  0  0  0  0999 V2000
   -7.9483   -4.3284    0.0000 O   0  0  0  0  0  0  0  0  0  0  0  0
   -7.9252   -2.8286    0.0000 C   0  0  0  0  0  0  0  0  0  0  0  0
   -9.2126   -2.0587    0.0000 C   0  0  0  0  0  0  0  0  0  0  0  0
   -9.1895   -0.5589    0.0000 C   0  0  0  0  0  0  0  0  0  0  0  0
   -7.8791    0.1711    0.0000 C   0  0  0  0  0  0  0  0  0  0  0  0
   -7.8561    1.6709    0.0000 C   0  0  0  0  0  0  0  0  0  0  0  0
   -6.5457    2.4008    0.0000 C   0  0  0  0  0  0  0  0  0  0  0  0
   -5.2583    1.6310    0.0000 C   0  0  0  0  0  0  0  0  0  0  0  0
   -3.9479    2.3609    0.0000 O   0  0  0  0  0  0  0  0  0  0  0  0
   -2.6606    1.5911    0.0000 C   0  0  0  0  0  0  0  0  0  0  0  0
   -1.3501    2.3210    0.0000 C   0  0  0  0  0  0  0  0  0  0  0  0
   -0.0628    1.5511    0.0000 C   0  0  0  0  0  0  0  0  0  0  0  0
    1.2476    2.2811    0.0000 C   0  0  0  0  0  0  0  0  0  0  0  0
    2.5350    1.5112    0.0000 N   0  0  0  0  0  0  0  0  0  0  0  0
    2.5119    0.0114    0.0000 C   0  0  0  0  0  0  0  0  0  0  0  0
    3.7993   -0.7585    0.0000 C   0  0  0  0  0  0  0  0  0  0  0  0
    5.1097   -0.0285    0.0000 N   0  0  0  0  0  0  0  0  0  0  0  0
    6.3971   -0.7984    0.0000 C   0  0  0  0  0  0  0  0  0  0  0  0
    6.3740   -2.2982    0.0000 C   0  0  0  0  0  0  0  0  0  0  0  0
    7.6614   -3.0681    0.0000 C   0  0  0  0  0  0  0  0  0  0  0  0
    8.9718   -2.3381    0.0000 C   0  0  0  0  0  0  0  0  0  0  0  0
    8.9948   -0.8383    0.0000 C   0  0  0  0  0  0  0  0  0  0  0  0
   10.3053   -0.1083    0.0000 Cl  0  0  0  0  0  0  0  0  0  0  0  0
    7.7075   -0.0684    0.0000 C   0  0  0  0  0  0  0  0  0  0  0  0
    7.7305    1.4314    0.0000 Cl  0  0  0  0  0  0  0  0  0  0  0  0
    5.1328    1.4713    0.0000 C   0  0  0  0  0  0  0  0  0  0  0  0
    3.8454    2.2412    0.0000 C   0  0  0  0  0  0  0  0  0  0  0  0
   -5.2814    0.1312    0.0000 C   0  0  0  0  0  0  0  0  0  0  0  0
   -6.5918   -0.5988    0.0000 C   0  0  0  0  0  0  0  0  0  0  0  0
   -6.6148   -2.0986    0.0000 N   0  0  0  0  0  0  0  0  0  0  0  0
  1  2  2  0
  2  3  1  0
  3  4  1  0
  4  5  1  0
  5  6  2  0
  6  7  1  0
  7  8  2  0
  8  9  1  0
  9 10  1  0
 10 11  1  0
 11 12  1  0
 12 13  1  0
 13 14  1  0
 14 15  1  0
 15 16  1  0
 16 17  1  0
 17 18  1  0
 18 19  2  0
 19 20  1  0
 20 21  2  0
 21 22  1  0
 22 23  1  0
 22 24  2  0
 24 25  1  0
 17 26  1  0
 26 27  1  0
  8 28  1  0
 28 29  2  0
 29 30  1  0
 30  2  1  0
 29  5  1  0
 27 14  1  0
 24 18  1  0
M  END
> <Identifier>
ARIPIPRAZOLE

> <hERG>
1

$$$$

     RDKit          2D

 26 28  0  0  0  0  0  0  0  0999 V2000
   -3.5346   -5.8883    0.0000 C   0  0  0  0  0  0  0  0  0  0  0  0
   -2.4777   -4.8239    0.0000 C   0  0  0  0  0  0  0  0  0  0  0  0
   -0.9953   -5.0533    0.0000 C   0  0  0  0  0  0  0  0  0  0  0  0
   -0.3190   -3.7144    0.0000 C   0  0  0  0  0  0  0  0  0  0  0  0
   -1.3834   -2.6575    0.0000 C   0  0  0  0  0  0  0  0  0  0  0  0
   -1.1540   -1.1752    0.0000 C   0  0  0  0  0  0  0  0  0  0  0  0
    0.2445   -0.6327    0.0000 N   0  0  0  0  0  0  0  0  0  0  0  0
    0.4739    0.8497    0.0000 C   0  0  0  0  0  0  0  0  0  0  0  0
    1.8723    1.3922    0.0000 N   0  0  0  0  0  0  0  0  0  0  0  0
    3.0414    0.4523    0.0000 C   0  0  0  0  0  0  0  0  0  0  0  0
    2.8120   -1.0300    0.0000 O   0  0  0  0  0  0  0  0  0  0  0  0
    4.4399    0.9948    0.0000 C   0  0  0  0  0  0  0  0  0  0  0  0
    5.6089    0.0549    0.0000 C   0  0  0  0  0  0  0  0  0  0  0  0
    7.0074    0.5974    0.0000 N   0  0  0  0  0  0  0  0  0  0  0  0
    8.1764   -0.3424    0.0000 C   0  0  0  0  0  0  0  0  0  0  0  0
    7.2368    2.0798    0.0000 C   0  0  0  0  0  0  0  0  0  0  0  0
   -0.6952    1.7895    0.0000 C   0  0  0  0  0  0  0  0  0  0  0  0
   -2.0936    1.2471    0.0000 C   0  0  0  0  0  0  0  0  0  0  0  0
   -3.2627    2.1869    0.0000 N   0  0  0  0  0  0  0  0  0  0  0  0
   -4.7102    1.7936    0.0000 N   0  0  0  0  0  0  0  0  0  0  0  0
   -5.5316    3.0487    0.0000 C   0  0  0  0  0  0  0  0  0  0  0  0
   -4.5917    4.2177    0.0000 C   0  0  0  0  0  0  0  0  0  0  0  0
   -3.1894    3.6851    0.0000 C   0  0  0  0  0  0  0  0  0  0  0  0
   -1.9343    4.5065    0.0000 C   0  0  0  0  0  0  0  0  0  0  0  0
   -2.3231   -0.2353    0.0000 N   0  0  0  0  0  0  0  0  0  0  0  0
   -2.7175   -3.3432    0.0000 O   0  0  0  0  0  0  0  0  0  0  0  0
  1  2  1  0
  2  3  2  0
  3  4  1  0
  4  5  2  0
  5  6  1  0
  6  7  2  0
  7  8  1  0
  8  9  1  0
  9 10  1  0
 10 11  2  0
 10 12  1  0
 12 13  1  0
 13 14  1  0
 14 15  1  0
 14 16  1  0
  8 17  2  0
 17 18  1  0
 18 19  1  0
 19 20  1  0
 20 21  2  0
 21 22  1  0
 22 23  2  0
 23 24  1  0
 18 25  2  0
  5 26  1  0
 26  2  1  0
 25  6  1  0
 23 19  1  0
M  END
> <Identifier>
2-AMINO-N-PYRIMIDIN-4-YLACETAMIDE-5

> <hERG>
1

$$$$

     RDKit          2D

 41 46  0  0  0  0  0  0  0  0999 V2000
   -6.4317    6.5975    0.0000 C   0  0  0  0  0  0  0  0  0  0  0  0
   -5.1166    5.8760    0.0000 N   0  0  0  0  0  0  0  0  0  0  0  0
   -3.8342    6.6542    0.0000 C   0  0  0  0  0  0  0  0  0  0  0  0
   -2.5191    5.9327    0.0000 C   0  0  0  0  0  0  0  0  0  0  0  0
   -2.4864    4.4330    0.0000 N   0  0  0  0  0  0  0  0  0  0  0  0
   -1.1713    3.7115    0.0000 C   0  0  0  0  0  0  0  0  0  0  0  0
   -1.1386    2.2119    0.0000 C   0  0  0  0  0  0  0  0  0  0  0  0
    0.1764    1.4904    0.0000 C   0  0  0  0  0  0  0  0  0  0  0  0
    0.2092   -0.0093    0.0000 N   0  0  0  0  0  0  0  0  0  0  0  0
   -1.0732   -0.7874    0.0000 C   0  0  0  0  0  0  0  0  0  0  0  0
   -1.0405   -2.2870    0.0000 O   0  0  0  0  0  0  0  0  0  0  0  0
   -2.3883   -0.0659    0.0000 N   0  0  0  0  0  0  0  0  0  0  0  0
   -3.6707   -0.8441    0.0000 C   0  0  0  0  0  0  0  0  0  0  0  0
   -4.9858   -0.1226    0.0000 C   0  0  0  0  0  0  0  0  0  0  0  0
   -6.2681   -0.9007    0.0000 C   0  0  0  0  0  0  0  0  0  0  0  0
   -6.2354   -2.4004    0.0000 C   0  0  0  0  0  0  0  0  0  0  0  0
   -7.5178   -3.1785    0.0000 F   0  0  0  0  0  0  0  0  0  0  0  0
   -4.9203   -3.1219    0.0000 C   0  0  0  0  0  0  0  0  0  0  0  0
   -4.8876   -4.6215    0.0000 C   0  0  0  0  0  0  0  0  0  0  0  0
   -4.8549   -6.1211    0.0000 F   0  0  0  0  0  0  0  0  0  0  0  0
   -3.3880   -4.5888    0.0000 F   0  0  0  0  0  0  0  0  0  0  0  0
   -6.3873   -4.6542    0.0000 F   0  0  0  0  0  0  0  0  0  0  0  0
   -3.6380   -2.3437    0.0000 C   0  0  0  0  0  0  0  0  0  0  0  0
    1.5242   -0.7307    0.0000 C   0  0  0  0  0  0  0  0  0  0  0  0
    2.8809   -0.0909    0.0000 C   0  0  0  0  0  0  0  0  0  0  0  0
    3.9087   -1.1835    0.0000 C   0  0  0  0  0  0  0  0  0  0  0  0
    5.3967   -0.9942    0.0000 C   0  0  0  0  0  0  0  0  0  0  0  0
    6.3046   -2.1882    0.0000 C   0  0  0  0  0  0  0  0  0  0  0  0
    7.7926   -1.9989    0.0000 C   0  0  0  0  0  0  0  0  0  0  0  0
    8.3727   -0.6156    0.0000 C   0  0  0  0  0  0  0  0  0  0  0  0
    7.4648    0.5784    0.0000 C   0  0  0  0  0  0  0  0  0  0  0  0
    5.9768    0.3891    0.0000 C   0  0  0  0  0  0  0  0  0  0  0  0
    8.3198    1.8109    0.0000 C   0  0  0  0  0  0  0  0  0  0  0  0
    7.8253    3.2270    0.0000 N   0  0  0  0  0  0  0  0  0  0  0  0
    9.7562    1.3786    0.0000 N   0  0  0  0  0  0  0  0  0  0  0  0
    9.7889   -0.1211    0.0000 O   0  0  0  0  0  0  0  0  0  0  0  0
    3.1872   -2.4986    0.0000 C   0  0  0  0  0  0  0  0  0  0  0  0
    2.2081   -3.6349    0.0000 C   0  0  0  0  0  0  0  0  0  0  0  0
    1.7135   -2.2188    0.0000 C   0  0  0  0  0  0  0  0  0  0  0  0
   -3.7688    3.6549    0.0000 C   0  0  0  0  0  0  0  0  0  0  0  0
   -5.0839    4.3764    0.0000 C   0  0  0  0  0  0  0  0  0  0  0  0
  1  2  1  0
  2  3  1  0
  3  4  1  0
  4  5  1  0
  5  6  1  0
  6  7  1  0
  7  8  1  0
  8  9  1  0
  9 10  1  0
 10 11  2  0
 10 12  1  0
 12 13  1  0
 13 14  2  0
 14 15  1  0
 15 16  2  0
 16 17  1  0
 16 18  1  0
 18 19  1  0
 19 20  1  0
 19 21  1  0
 19 22  1  0
 18 23  2  0
 24  9  1  6
 24 25  1  0
 25 26  1  0
 26 27  1  1
 27 28  2  0
 28 29  1  0
 29 30  2  0
 30 31  1  0
 31 32  2  0
 31 33  1  0
 33 34  1  6
 33 35  1  0
 35 36  1  0
 26 37  1  0
 37 38  1  6
 39 38  1  1
  5 40  1  0
 40 41  1  0
 41  2  1  0
 23 13  1  0
 39 24  1  0
 32 27  1  0
 39 37  1  0
 36 30  1  0
M  END
> <Identifier>
BMCL-16-2006-4265_26

> <hERG>
1

$$$$

     RDKit          2D

 33 36  0  0  0  0  0  0  0  0999 V2000
   -9.7811   -0.1164    0.0000 C   0  0  0  0  0  0  0  0  0  0  0  0
   -8.3076    0.1644    0.0000 C   0  0  0  0  0  0  0  0  0  0  0  0
   -7.8141    1.5809    0.0000 C   0  0  0  0  0  0  0  0  0  0  0  0
   -6.3406    1.8617    0.0000 C   0  0  0  0  0  0  0  0  0  0  0  0
   -5.3607    0.7260    0.0000 C   0  0  0  0  0  0  0  0  0  0  0  0
   -3.8872    1.0068    0.0000 N   0  0  0  0  0  0  0  0  0  0  0  0
   -3.2483    2.3639    0.0000 N   0  0  0  0  0  0  0  0  0  0  0  0
   -1.7601    2.1757    0.0000 C   0  0  0  0  0  0  0  0  0  0  0  0
   -0.7331    3.2689    0.0000 C   0  0  0  0  0  0  0  0  0  0  0  0
   -1.4793    0.7022    0.0000 C   0  0  0  0  0  0  0  0  0  0  0  0
   -0.1222    0.0633    0.0000 N   0  0  0  0  0  0  0  0  0  0  0  0
    0.0031   -1.4315    0.0000 N   0  0  0  0  0  0  0  0  0  0  0  0
    1.3602   -2.0704    0.0000 C   0  0  0  0  0  0  0  0  0  0  0  0
    1.4854   -3.5651    0.0000 C   0  0  0  0  0  0  0  0  0  0  0  0
    2.8426   -4.2041    0.0000 C   0  0  0  0  0  0  0  0  0  0  0  0
    4.0744   -3.3482    0.0000 C   0  0  0  0  0  0  0  0  0  0  0  0
    3.9492   -1.8534    0.0000 C   0  0  0  0  0  0  0  0  0  0  0  0
    5.1811   -0.9976    0.0000 C   0  0  0  0  0  0  0  0  0  0  0  0
    6.5382   -1.6365    0.0000 C   0  0  0  0  0  0  0  0  0  0  0  0
    7.7701   -0.7806    0.0000 C   0  0  0  0  0  0  0  0  0  0  0  0
    7.6448    0.7141    0.0000 C   0  0  0  0  0  0  0  0  0  0  0  0
    6.2877    1.3530    0.0000 C   0  0  0  0  0  0  0  0  0  0  0  0
    6.1624    2.8478    0.0000 C   0  0  0  0  0  0  0  0  0  0  0  0
    4.8053    3.4867    0.0000 O   0  0  0  0  0  0  0  0  0  0  0  0
    7.3943    3.7036    0.0000 O   0  0  0  0  0  0  0  0  0  0  0  0
    5.0558    0.4972    0.0000 C   0  0  0  0  0  0  0  0  0  0  0  0
    2.5921   -1.2145    0.0000 C   0  0  0  0  0  0  0  0  0  0  0  0
    2.4668    0.2802    0.0000 O   0  0  0  0  0  0  0  0  0  0  0  0
   -2.7939   -0.0202    0.0000 C   0  0  0  0  0  0  0  0  0  0  0  0
   -2.9822   -1.5083    0.0000 O   0  0  0  0  0  0  0  0  0  0  0  0
   -5.8542   -0.6905    0.0000 C   0  0  0  0  0  0  0  0  0  0  0  0
   -7.3277   -0.9713    0.0000 C   0  0  0  0  0  0  0  0  0  0  0  0
   -7.8212   -2.3878    0.0000 C   0  0  0  0  0  0  0  0  0  0  0  0
  1  2  1  0
  2  3  2  0
  3  4  1  0
  4  5  2  0
  5  6  1  0
  6  7  1  0
  7  8  1  0
  8  9  1  0
  8 10  2  0
 10 11  1  0
 11 12  1  0
 12 13  2  0
 13 14  1  0
 14 15  2  0
 15 16  1  0
 16 17  2  0
 17 18  1  0
 18 19  2  0
 19 20  1  0
 20 21  2  0
 21 22  1  0
 22 23  1  0
 23 24  2  0
 23 25  1  0
 22 26  2  0
 17 27  1  0
 27 28  2  0
 10 29  1  0
 29 30  2  0
  5 31  1  0
 31 32  2  0
 32 33  1  0
 32  2  1  0
 29  6  1  0
 27 13  1  0
 26 18  1  0
M  END
> <Identifier>
ELTROMBOPAG

> <hERG>
1

$$$$

     RDKit          2D

 24 27  0  0  0  0  0  0  0  0999 V2000
   -7.0741    0.9804    0.0000 C   0  0  0  0  0  0  0  0  0  0  0  0
   -6.1661   -0.2135    0.0000 C   0  0  0  0  0  0  0  0  0  0  0  0
   -4.6781   -0.0242    0.0000 C   0  0  0  0  0  0  0  0  0  0  0  0
   -3.7701   -1.2182    0.0000 C   0  0  0  0  0  0  0  0  0  0  0  0
   -2.2821   -1.0288    0.0000 N   0  0  0  0  0  0  0  0  0  0  0  0
   -1.7021    0.3545    0.0000 C   0  0  0  0  0  0  0  0  0  0  0  0
   -2.6101    1.5485    0.0000 C   0  0  0  0  0  0  0  0  0  0  0  0
   -4.0981    1.3591    0.0000 C   0  0  0  0  0  0  0  0  0  0  0  0
   -2.8808    0.9029    0.0000 C   0  0  0  0  0  0  0  0  0  0  0  0
   -2.3965    0.2661    0.0000 C   0  0  0  0  0  0  0  0  0  0  0  0
   -0.2141    0.5438    0.0000 C   0  0  0  0  0  0  0  0  0  0  0  0
    0.3659    1.9272    0.0000 O   0  0  0  0  0  0  0  0  0  0  0  0
    0.6939   -0.6501    0.0000 C   0  0  0  0  0  0  0  0  0  0  0  0
    0.1138   -2.0334    0.0000 C   0  0  0  0  0  0  0  0  0  0  0  0
    1.0218   -3.2274    0.0000 C   0  0  0  0  0  0  0  0  0  0  0  0
    2.5098   -3.0381    0.0000 N   0  0  0  0  0  0  0  0  0  0  0  0
    3.0898   -1.6548    0.0000 C   0  0  0  0  0  0  0  0  0  0  0  0
    4.5778   -1.4654    0.0000 C   0  0  0  0  0  0  0  0  0  0  0  0
    5.1579   -0.0821    0.0000 C   0  0  0  0  0  0  0  0  0  0  0  0
    4.2499    1.1119    0.0000 C   0  0  0  0  0  0  0  0  0  0  0  0
    4.8299    2.4952    0.0000 O   0  0  0  0  0  0  0  0  0  0  0  0
    6.3179    2.6846    0.0000 C   0  0  0  0  0  0  0  0  0  0  0  0
    2.7619    0.9225    0.0000 C   0  0  0  0  0  0  0  0  0  0  0  0
    2.1819   -0.4608    0.0000 C   0  0  0  0  0  0  0  0  0  0  0  0
  1  2  2  0
  3  2  1  6
  3  4  1  0
  4  5  1  0
  5  6  1  0
  6  7  1  0
  8  7  1  1
  8  9  1  0
 10  9  1  6
 10 11  1  0
 11 12  1  1
 11 13  1  0
 13 14  2  0
 14 15  1  0
 15 16  2  0
 16 17  1  0
 17 18  2  0
 18 19  1  0
 19 20  2  0
 20 21  1  0
 21 22  1  0
 20 23  1  0
 23 24  2  0
  8  3  1  0
 24 13  1  0
 10  5  1  0
 24 17  1  0
M  END
> <Identifier>
(+)-QUINIDINE

> <hERG>
1

$$$$

     RDKit          2D

 25 27  0  0  0  0  0  0  0  0999 V2000
   -6.4529    2.6183    0.0000 N   0  0  0  0  0  4  0  0  0  0  0  0
   -4.9710    2.8505    0.0000 C   0  0  0  0  0  0  0  0  0  0  0  0
   -4.0290    1.6831    0.0000 C   0  0  0  0  0  0  0  0  0  0  0  0
   -2.5471    1.9152    0.0000 C   0  0  0  0  0  0  0  0  0  0  0  0
   -2.0071    3.3147    0.0000 O   0  0  0  0  0  0  0  0  0  0  0  0
   -1.6051    0.7479    0.0000 C   0  0  0  0  0  0  0  0  0  0  0  0
   -2.1450   -0.6515    0.0000 C   0  0  0  0  0  0  0  0  0  0  0  0
   -1.2030   -1.8189    0.0000 C   0  0  0  0  0  0  0  0  0  0  0  0
   -1.7430   -3.2183    0.0000 C   0  0  0  0  0  0  0  0  0  0  0  0
   -3.2249   -3.4504    0.0000 Cl  0  0  0  0  0  0  0  0  0  0  0  0
   -0.8010   -4.3857    0.0000 C   0  0  0  0  0  0  0  0  0  0  0  0
    0.6809   -4.1535    0.0000 C   0  0  0  0  0  0  0  0  0  0  0  0
    1.6229   -5.3209    0.0000 Cl  0  0  0  0  0  0  0  0  0  0  0  0
    1.2209   -2.7541    0.0000 C   0  0  0  0  0  0  0  0  0  0  0  0
    0.2789   -1.5868    0.0000 C   0  0  0  0  0  0  0  0  0  0  0  0
    0.8188   -0.1873    0.0000 C   0  0  0  0  0  0  0  0  0  0  0  0
    2.3008    0.0448    0.0000 C   0  0  0  0  0  0  0  0  0  0  0  0
    2.8407    1.4443    0.0000 C   0  0  0  0  0  0  0  0  0  0  0  0
    4.3227    1.6764    0.0000 C   0  0  0  0  0  0  0  0  0  0  0  0
    5.8046    1.9085    0.0000 F   0  0  0  0  0  0  0  0  0  0  0  0
    4.5548    0.1944    0.0000 F   0  0  0  0  0  0  0  0  0  0  0  0
    4.0905    3.1583    0.0000 F   0  0  0  0  0  0  0  0  0  0  0  0
    1.8987    2.6116    0.0000 C   0  0  0  0  0  0  0  0  0  0  0  0
    0.4168    2.3795    0.0000 C   0  0  0  0  0  0  0  0  0  0  0  0
   -0.1231    0.9800    0.0000 C   0  0  0  0  0  0  0  0  0  0  0  0
  1  2  1  0
  2  3  1  0
  3  4  1  0
  4  5  1  1
  4  6  1  0
  6  7  2  0
  7  8  1  0
  8  9  2  0
  9 10  1  0
  9 11  1  0
 11 12  2  0
 12 13  1  0
 12 14  1  0
 14 15  2  0
 15 16  1  0
 16 17  2  0
 17 18  1  0
 18 19  1  0
 19 20  1  0
 19 21  1  0
 19 22  1  0
 18 23  2  0
 23 24  1  0
 24 25  2  0
 25  6  1  0
 15  8  1  0
 25 16  1  0
M  CHG  1   1   1
M  END
> <Identifier>
N_DEMETHYLHALOFANTRINE

> <hERG>
1

$$$$

     RDKit          2D

 22 25  0  0  0  0  0  0  0  0999 V2000
   -3.1453    1.8205    0.0000 C   0  0  0  0  0  0  0  0  0  0  0  0
   -4.1657    0.7211    0.0000 C   0  0  0  0  0  0  0  0  0  0  0  0
   -5.6549    0.9004    0.0000 N   0  0  0  0  0  0  0  0  0  0  0  0
   -6.2856   -0.4606    0.0000 C   0  0  0  0  0  0  0  0  0  0  0  0
   -5.1862   -1.4810    0.0000 C   0  0  0  0  0  0  0  0  0  0  0  0
   -3.8760   -0.7507    0.0000 N   0  0  0  0  0  0  0  0  0  0  0  0
   -2.5150   -1.3814    0.0000 C   0  0  0  0  0  0  0  0  0  0  0  0
   -1.2883   -0.5182    0.0000 C   0  0  0  0  0  0  0  0  0  0  0  0
   -1.4226    0.9758    0.0000 C   0  0  0  0  0  0  0  0  0  0  0  0
   -0.1959    1.8391    0.0000 C   0  0  0  0  0  0  0  0  0  0  0  0
    1.1651    1.2083    0.0000 C   0  0  0  0  0  0  0  0  0  0  0  0
    1.2993   -0.2856    0.0000 C   0  0  0  0  0  0  0  0  0  0  0  0
    2.7617   -0.6196    0.0000 C   0  0  0  0  0  0  0  0  0  0  0  0
    3.4920   -1.9298    0.0000 C   0  0  0  0  0  0  0  0  0  0  0  0
    4.9918   -1.9525    0.0000 C   0  0  0  0  0  0  0  0  0  0  0  0
    5.7613   -0.6649    0.0000 C   0  0  0  0  0  0  0  0  0  0  0  0
    5.0310    0.6453    0.0000 C   0  0  0  0  0  0  0  0  0  0  0  0
    3.5312    0.6679    0.0000 C   0  0  0  0  0  0  0  0  0  0  0  0
    2.5444    1.7977    0.0000 N   0  0  0  0  0  0  0  0  0  0  0  0
    2.8784    3.2600    0.0000 C   0  0  0  0  0  0  0  0  0  0  0  0
    0.0726   -1.1489    0.0000 C   0  0  0  0  0  0  0  0  0  0  0  0
    0.2069   -2.6429    0.0000 O   0  0  0  0  0  0  0  0  0  0  0  0
  1  2  1  0
  2  3  2  0
  3  4  1  0
  4  5  2  0
  5  6  1  0
  6  7  1  0
  8  7  1  6
  8  9  1  0
  9 10  1  0
 10 11  1  0
 11 12  2  0
 12 13  1  0
 13 14  2  0
 14 15  1  0
 15 16  2  0
 16 17  1  0
 17 18  2  0
 18 19  1  0
 19 20  1  0
 12 21  1  0
 21 22  2  0
  6  2  1  0
 21  8  1  0
 19 11  1  0
 18 13  1  0
M  END
> <Identifier>
ONDANSETRON

> <hERG>
1

$$$$

     RDKit          2D

 22 23  0  0  0  0  0  0  0  0999 V2000
   -7.0918   -0.3366    0.0000 C   0  0  0  0  0  0  0  0  0  0  0  0
   -5.9155   -1.2675    0.0000 N   0  0  0  0  0  0  0  0  0  0  0  0
   -4.5213   -0.7142    0.0000 C   0  0  0  0  0  0  0  0  0  0  0  0
   -3.3450   -1.6450    0.0000 C   0  0  0  0  0  0  0  0  0  0  0  0
   -1.9508   -1.0917    0.0000 C   0  0  0  0  0  0  0  0  0  0  0  0
   -0.7745   -2.0226    0.0000 O   0  0  0  0  0  0  0  0  0  0  0  0
    0.6197   -1.4693    0.0000 C   0  0  0  0  0  0  0  0  0  0  0  0
    1.7960   -2.4001    0.0000 C   0  0  0  0  0  0  0  0  0  0  0  0
    3.1902   -1.8468    0.0000 C   0  0  0  0  0  0  0  0  0  0  0  0
    3.4082   -0.3628    0.0000 C   0  0  0  0  0  0  0  0  0  0  0  0
    4.8024    0.1905    0.0000 C   0  0  0  0  0  0  0  0  0  0  0  0
    6.1967    0.7438    0.0000 F   0  0  0  0  0  0  0  0  0  0  0  0
    5.3557   -1.2037    0.0000 F   0  0  0  0  0  0  0  0  0  0  0  0
    4.2492    1.5847    0.0000 F   0  0  0  0  0  0  0  0  0  0  0  0
    2.2319    0.5681    0.0000 C   0  0  0  0  0  0  0  0  0  0  0  0
    0.8377    0.0148    0.0000 C   0  0  0  0  0  0  0  0  0  0  0  0
   -1.7328    0.3923    0.0000 C   0  0  0  0  0  0  0  0  0  0  0  0
   -0.3386    0.9456    0.0000 C   0  0  0  0  0  0  0  0  0  0  0  0
   -0.1206    2.4297    0.0000 C   0  0  0  0  0  0  0  0  0  0  0  0
   -1.2968    3.3605    0.0000 C   0  0  0  0  0  0  0  0  0  0  0  0
   -2.6911    2.8072    0.0000 C   0  0  0  0  0  0  0  0  0  0  0  0
   -2.9091    1.3231    0.0000 C   0  0  0  0  0  0  0  0  0  0  0  0
  1  2  1  0
  2  3  1  0
  3  4  1  0
  5  4  1  1
  5  6  1  0
  6  7  1  0
  7  8  2  0
  8  9  1  0
  9 10  2  0
 10 11  1  0
 11 12  1  0
 11 13  1  0
 11 14  1  0
 10 15  1  0
 15 16  2  0
  5 17  1  0
 17 18  2  0
 18 19  1  0
 19 20  2  0
 20 21  1  0
 21 22  2  0
 16  7  1  0
 22 17  1  0
M  END
> <Identifier>
FLUOXETINE HYDROCHLORIDE

> <hERG>
1

$$$$

     RDKit          2D

 20 21  0  0  0  0  0  0  0  0999 V2000
   -1.2155   -3.0616    0.0000 C   0  0  0  0  0  0  0  0  0  0  0  0
   -2.2996   -2.0249    0.0000 C   0  0  0  0  0  0  0  0  0  0  0  0
   -3.7394   -2.4454    0.0000 C   0  0  0  0  0  0  0  0  0  0  0  0
   -4.8235   -1.4087    0.0000 C   0  0  0  0  0  0  0  0  0  0  0  0
   -4.4677    0.0485    0.0000 C   0  0  0  0  0  0  0  0  0  0  0  0
   -3.0279    0.4690    0.0000 C   0  0  0  0  0  0  0  0  0  0  0  0
   -1.9438   -0.5677    0.0000 C   0  0  0  0  0  0  0  0  0  0  0  0
   -0.5039   -0.1472    0.0000 C   0  0  0  0  0  0  0  0  0  0  0  0
    0.5801   -1.1839    0.0000 O   0  0  0  0  0  0  0  0  0  0  0  0
    2.0200   -0.7634    0.0000 C   0  0  0  0  0  0  0  0  0  0  0  0
    3.1041   -1.8001    0.0000 C   0  0  0  0  0  0  0  0  0  0  0  0
    4.5439   -1.3796    0.0000 N   0  0  0  0  0  4  0  0  0  0  0  0
    5.6280   -2.4163    0.0000 C   0  0  0  0  0  0  0  0  0  0  0  0
    4.8997    0.0776    0.0000 C   0  0  0  0  0  0  0  0  0  0  0  0
   -0.1482    1.3100    0.0000 C   0  0  0  0  0  0  0  0  0  0  0  0
    1.2917    1.7305    0.0000 C   0  0  0  0  0  0  0  0  0  0  0  0
    1.6474    3.1877    0.0000 C   0  0  0  0  0  0  0  0  0  0  0  0
    0.5633    4.2244    0.0000 C   0  0  0  0  0  0  0  0  0  0  0  0
   -0.8765    3.8039    0.0000 C   0  0  0  0  0  0  0  0  0  0  0  0
   -1.2323    2.3467    0.0000 C   0  0  0  0  0  0  0  0  0  0  0  0
  1  2  1  0
  2  3  2  0
  3  4  1  0
  4  5  2  0
  5  6  1  0
  6  7  2  0
  7  8  1  0
  8  9  1  1
  9 10  1  0
 10 11  1  0
 11 12  1  0
 12 13  1  0
 12 14  1  0
  8 15  1  0
 15 16  2  0
 16 17  1  0
 17 18  2  0
 18 19  1  0
 19 20  2  0
  7  2  1  0
 20 15  1  0
M  CHG  1  12   1
M  END
> <Identifier>
ORPHENADRINE

> <hERG>
1

$$$$

     RDKit          2D

 23 25  0  0  0  0  0  0  0  0999 V2000
   -1.5621   -3.5877    0.0000 C   0  0  0  0  0  0  0  0  0  0  0  0
   -0.9633   -2.2124    0.0000 C   0  0  0  0  0  0  0  0  0  0  0  0
    0.5271   -2.0434    0.0000 C   0  0  0  0  0  0  0  0  0  0  0  0
    1.1259   -0.6681    0.0000 N   0  0  0  0  0  0  0  0  0  0  0  0
    2.6164   -0.4990    0.0000 C   0  0  0  0  0  0  0  0  0  0  0  0
    3.5080   -1.7053    0.0000 C   0  0  0  0  0  0  0  0  0  0  0  0
    4.9985   -1.5362    0.0000 C   0  0  0  0  0  0  0  0  0  0  0  0
    5.5973   -0.1609    0.0000 C   0  0  0  0  0  0  0  0  0  0  0  0
    4.7056    1.0453    0.0000 C   0  0  0  0  0  0  0  0  0  0  0  0
    3.2152    0.8763    0.0000 C   0  0  0  0  0  0  0  0  0  0  0  0
    2.3236    2.0825    0.0000 S   0  0  0  0  0  0  0  0  0  0  0  0
    0.8331    1.9134    0.0000 C   0  0  0  0  0  0  0  0  0  0  0  0
   -0.0585    3.1197    0.0000 C   0  0  0  0  0  0  0  0  0  0  0  0
   -1.5489    2.9506    0.0000 C   0  0  0  0  0  0  0  0  0  0  0  0
   -2.1478    1.5753    0.0000 C   0  0  0  0  0  0  0  0  0  0  0  0
   -3.6382    1.4063    0.0000 C   0  0  0  0  0  0  0  0  0  0  0  0
   -5.1286    1.2372    0.0000 N   0  0  0  0  0  0  0  0  0  0  0  0
   -1.2561    0.3691    0.0000 C   0  0  0  0  0  0  0  0  0  0  0  0
    0.2343    0.5382    0.0000 C   0  0  0  0  0  0  0  0  0  0  0  0
   -1.8549   -1.0062    0.0000 C   0  0  0  0  0  0  0  0  0  0  0  0
   -3.3454   -1.1752    0.0000 N   0  0  0  0  0  4  0  0  0  0  0  0
   -4.2370    0.0310    0.0000 C   0  0  0  0  0  0  0  0  0  0  0  0
   -3.9442   -2.5505    0.0000 C   0  0  0  0  0  0  0  0  0  0  0  0
  2  1  1  1
  2  3  1  0
  3  4  1  0
  4  5  1  0
  5  6  2  0
  6  7  1  0
  7  8  2  0
  8  9  1  0
  9 10  2  0
 10 11  1  0
 11 12  1  0
 12 13  2  0
 13 14  1  0
 14 15  2  0
 15 16  1  0
 16 17  3  0
 15 18  1  0
 18 19  2  0
  2 20  1  0
 20 21  1  0
 21 22  1  0
 21 23  1  0
 19  4  1  0
 10  5  1  0
 19 12  1  0
M  CHG  1  21   1
M  END
> <Identifier>
CYAMEMAZIN

> <hERG>
1

$$$$

     RDKit          2D

 23 25  0  0  0  0  0  0  0  0999 V2000
   -1.5621   -3.5877    0.0000 C   0  0  0  0  0  0  0  0  0  0  0  0
   -0.9633   -2.2124    0.0000 C   0  0  0  0  0  0  0  0  0  0  0  0
   -1.8549   -1.0062    0.0000 C   0  0  0  0  0  0  0  0  0  0  0  0
   -3.3454   -1.1752    0.0000 N   0  0  0  0  0  0  0  0  0  0  0  0
   -4.2370    0.0310    0.0000 C   0  0  0  0  0  0  0  0  0  0  0  0
   -3.9442   -2.5505    0.0000 C   0  0  0  0  0  0  0  0  0  0  0  0
    0.5271   -2.0434    0.0000 C   0  0  0  0  0  0  0  0  0  0  0  0
    1.1259   -0.6681    0.0000 N   0  0  0  0  0  0  0  0  0  0  0  0
    2.6164   -0.4990    0.0000 C   0  0  0  0  0  0  0  0  0  0  0  0
    3.5080   -1.7053    0.0000 C   0  0  0  0  0  0  0  0  0  0  0  0
    4.9985   -1.5362    0.0000 C   0  0  0  0  0  0  0  0  0  0  0  0
    5.5973   -0.1609    0.0000 C   0  0  0  0  0  0  0  0  0  0  0  0
    4.7056    1.0453    0.0000 C   0  0  0  0  0  0  0  0  0  0  0  0
    3.2152    0.8763    0.0000 C   0  0  0  0  0  0  0  0  0  0  0  0
    2.3236    2.0825    0.0000 S   0  0  0  0  0  0  0  0  0  0  0  0
    0.8331    1.9134    0.0000 C   0  0  0  0  0  0  0  0  0  0  0  0
   -0.0585    3.1197    0.0000 C   0  0  0  0  0  0  0  0  0  0  0  0
   -1.5489    2.9506    0.0000 C   0  0  0  0  0  0  0  0  0  0  0  0
   -2.1478    1.5753    0.0000 C   0  0  0  0  0  0  0  0  0  0  0  0
   -3.6382    1.4063    0.0000 C   0  0  0  0  0  0  0  0  0  0  0  0
   -5.1286    1.2372    0.0000 N   0  0  0  0  0  0  0  0  0  0  0  0
   -1.2561    0.3691    0.0000 C   0  0  0  0  0  0  0  0  0  0  0  0
    0.2343    0.5382    0.0000 C   0  0  0  0  0  0  0  0  0  0  0  0
  2  1  1  1
  2  3  1  0
  3  4  1  0
  4  5  1  0
  4  6  1  0
  2  7  1  0
  7  8  1  0
  8  9  1  0
  9 10  2  0
 10 11  1  0
 11 12  2  0
 12 13  1  0
 13 14  2  0
 14 15  1  0
 15 16  1  0
 16 17  2  0
 17 18  1  0
 18 19  2  0
 19 20  1  0
 20 21  3  0
 19 22  1  0
 22 23  2  0
 23  8  1  0
 14  9  1  0
 23 16  1  0
M  END
> <Identifier>
CYAMEMAZINE

> <hERG>
1

$$$$

     RDKit          2D

 36 40  0  0  0  0  0  0  0  0999 V2000
    2.3528    4.9830    0.0000 N   0  0  0  0  0  0  0  0  0  0  0  0
    0.9422    4.4731    0.0000 C   0  0  0  0  0  0  0  0  0  0  0  0
   -0.4685    3.9631    0.0000 C   0  0  0  0  0  0  0  0  0  0  0  0
   -1.6154    4.9298    0.0000 C   0  0  0  0  0  0  0  0  0  0  0  0
   -3.0261    4.4198    0.0000 C   0  0  0  0  0  0  0  0  0  0  0  0
   -3.2898    2.9432    0.0000 C   0  0  0  0  0  0  0  0  0  0  0  0
   -4.7004    2.4332    0.0000 C   0  0  0  0  0  0  0  0  0  0  0  0
   -4.9641    0.9565    0.0000 N   0  0  0  0  0  0  0  0  0  0  0  0
   -6.3137    0.3019    0.0000 C   0  0  0  0  0  0  0  0  0  0  0  0
   -6.1082   -1.1839    0.0000 N   0  0  0  0  0  0  0  0  0  0  0  0
   -4.6315   -1.4476    0.0000 C   0  0  0  0  0  0  0  0  0  0  0  0
   -3.9244   -0.1247    0.0000 C   0  0  0  0  0  0  0  0  0  0  0  0
   -2.4386    0.0808    0.0000 C   0  0  0  0  0  0  0  0  0  0  0  0
   -1.5177   -1.1032    0.0000 N   0  0  0  0  0  4  0  0  0  0  0  0
   -2.0826   -2.4928    0.0000 C   0  0  0  0  0  0  0  0  0  0  0  0
   -1.1617   -3.6768    0.0000 C   0  0  0  0  0  0  0  0  0  0  0  0
   -1.7266   -5.0663    0.0000 C   0  0  0  0  0  0  0  0  0  0  0  0
   -0.8057   -6.2504    0.0000 C   0  0  0  0  0  0  0  0  0  0  0  0
    0.6802   -6.0448    0.0000 C   0  0  0  0  0  0  0  0  0  0  0  0
    1.2451   -4.6553    0.0000 N   0  0  0  0  0  0  0  0  0  0  0  0
    0.3242   -3.4712    0.0000 C   0  0  0  0  0  0  0  0  0  0  0  0
   -0.0318   -0.8977    0.0000 C   0  0  0  0  0  0  0  0  0  0  0  0
    1.0078   -1.9789    0.0000 C   0  0  0  0  0  0  0  0  0  0  0  0
    2.3574   -1.3243    0.0000 C   0  0  0  0  0  0  0  0  0  0  0  0
    2.1519    0.1615    0.0000 N   0  0  0  0  0  0  0  0  0  0  0  0
    3.2332    1.2012    0.0000 C   0  0  0  0  0  0  0  0  0  0  0  0
    4.6742    0.7846    0.0000 C   0  0  0  0  0  0  0  0  0  0  0  0
    5.7554    1.8242    0.0000 C   0  0  0  0  0  0  0  0  0  0  0  0
    7.1964    1.4076    0.0000 C   0  0  0  0  0  0  0  0  0  0  0  0
    7.5561   -0.0486    0.0000 C   0  0  0  0  0  0  0  0  0  0  0  0
    6.4749   -1.0882    0.0000 C   0  0  0  0  0  0  0  0  0  0  0  0
    5.0339   -0.6716    0.0000 C   0  0  0  0  0  0  0  0  0  0  0  0
    0.6753    0.4252    0.0000 C   0  0  0  0  0  0  0  0  0  0  0  0
    0.0206    1.7748    0.0000 O   0  0  0  0  0  0  0  0  0  0  0  0
   -2.1428    1.9765    0.0000 C   0  0  0  0  0  0  0  0  0  0  0  0
   -0.7321    2.4864    0.0000 C   0  0  0  0  0  0  0  0  0  0  0  0
  1  2  3  0
  2  3  1  0
  3  4  2  0
  4  5  1  0
  5  6  2  0
  6  7  1  0
  7  8  1  0
  8  9  1  0
  9 10  2  0
 10 11  1  0
 11 12  2  0
 12 13  1  0
 13 14  1  0
 14 15  1  0
 15 16  1  0
 16 17  2  0
 17 18  1  0
 18 19  2  0
 19 20  1  0
 20 21  2  0
 22 14  1  6
 22 23  1  0
 23 24  1  0
 24 25  1  0
 25 26  1  0
 26 27  1  0
 27 28  2  0
 28 29  1  0
 29 30  2  0
 30 31  1  0
 31 32  2  0
 25 33  1  0
 33 34  2  0
  6 35  1  0
 35 36  2  0
 36  3  1  0
 12  8  1  0
 21 16  1  0
 33 22  1  0
 32 27  1  0
M  CHG  1  14   1
M  END
> <Identifier>
WOMBAT27

> <hERG>
1

$$$$

     RDKit          2D

 19 20  0  0  0  0  0  0  0  0999 V2000
   -4.9080    2.2582    0.0000 C   0  0  0  0  0  0  0  0  0  0  0  0
   -3.4178    2.4292    0.0000 N   0  0  0  0  0  0  0  0  0  0  0  0
   -2.8208    3.8053    0.0000 C   0  0  0  0  0  0  0  0  0  0  0  0
   -2.5245    1.2242    0.0000 C   0  0  0  0  0  0  0  0  0  0  0  0
   -1.0343    1.3953    0.0000 C   0  0  0  0  0  0  0  0  0  0  0  0
   -0.1410    0.1903    0.0000 C   0  0  0  0  0  0  0  0  0  0  0  0
    1.3492    0.3613    0.0000 C   0  0  0  0  0  0  0  0  0  0  0  0
    2.2424   -0.8437    0.0000 C   0  0  0  0  0  0  0  0  0  0  0  0
    3.7326   -0.6726    0.0000 C   0  0  0  0  0  0  0  0  0  0  0  0
    4.3296    0.7035    0.0000 C   0  0  0  0  0  0  0  0  0  0  0  0
    5.8198    0.8746    0.0000 Br  0  0  0  0  0  0  0  0  0  0  0  0
    3.4363    1.9085    0.0000 C   0  0  0  0  0  0  0  0  0  0  0  0
    1.9461    1.7374    0.0000 C   0  0  0  0  0  0  0  0  0  0  0  0
   -0.7380   -1.1858    0.0000 C   0  0  0  0  0  0  0  0  0  0  0  0
   -2.2282   -1.3569    0.0000 C   0  0  0  0  0  0  0  0  0  0  0  0
   -2.8252   -2.7330    0.0000 C   0  0  0  0  0  0  0  0  0  0  0  0
   -1.9319   -3.9380    0.0000 C   0  0  0  0  0  0  0  0  0  0  0  0
   -0.4417   -3.7670    0.0000 C   0  0  0  0  0  0  0  0  0  0  0  0
    0.1553   -2.3909    0.0000 N   0  0  0  0  0  0  0  0  0  0  0  0
  1  2  1  0
  2  3  1  0
  2  4  1  0
  4  5  1  0
  6  5  1  6
  6  7  1  0
  7  8  2  0
  8  9  1  0
  9 10  2  0
 10 11  1  0
 10 12  1  0
 12 13  2  0
  6 14  1  0
 14 15  2  0
 15 16  1  0
 16 17  2  0
 17 18  1  0
 18 19  2  0
 13  7  1  0
 19 14  1  0
M  END
> <Identifier>
BROMPHENIRAMINE MALEATE

> <hERG>
1

$$$$

     RDKit          2D

 26 29  0  0  0  0  0  0  0  0999 V2000
   -1.8689    1.0206    0.0000 O   0  0  0  0  0  0  0  0  0  0  0  0
   -1.4222   -0.4114    0.0000 C   0  0  0  0  0  0  0  0  0  0  0  0
   -2.4390   -1.5142    0.0000 N   0  0  0  0  0  0  0  0  0  0  0  0
   -3.9024   -1.1850    0.0000 C   0  0  0  0  0  0  0  0  0  0  0  0
   -4.3491    0.2469    0.0000 C   0  0  0  0  0  0  0  0  0  0  0  0
   -5.8125    0.5760    0.0000 C   0  0  0  0  0  0  0  0  0  0  0  0
   -6.8293   -0.5268    0.0000 C   0  0  0  0  0  0  0  0  0  0  0  0
   -6.3826   -1.9587    0.0000 C   0  0  0  0  0  0  0  0  0  0  0  0
   -4.9192   -2.2879    0.0000 C   0  0  0  0  0  0  0  0  0  0  0  0
    0.0412   -0.7405    0.0000 C   0  0  0  0  0  0  0  0  0  0  0  0
    0.6351   -2.1179    0.0000 N   0  0  0  0  0  0  0  0  0  0  0  0
    2.1287   -1.9787    0.0000 C   0  0  0  0  0  0  0  0  0  0  0  0
    3.2315   -2.9955    0.0000 C   0  0  0  0  0  0  0  0  0  0  0  0
    4.6634   -2.5488    0.0000 C   0  0  0  0  0  0  0  0  0  0  0  0
    5.7662   -3.5656    0.0000 F   0  0  0  0  0  0  0  0  0  0  0  0
    4.9926   -1.0854    0.0000 C   0  0  0  0  0  0  0  0  0  0  0  0
    3.8898   -0.0686    0.0000 C   0  0  0  0  0  0  0  0  0  0  0  0
    2.4578   -0.5153    0.0000 C   0  0  0  0  0  0  0  0  0  0  0  0
    1.1677    0.2500    0.0000 C   0  0  0  0  0  0  0  0  0  0  0  0
    1.0285    1.7435    0.0000 C   0  0  0  0  0  0  0  0  0  0  0  0
   -0.3345    2.3697    0.0000 C   0  0  0  0  0  0  0  0  0  0  0  0
   -0.4737    3.8632    0.0000 N   0  0  0  0  0  4  0  0  0  0  0  0
    0.7501    4.7306    0.0000 C   0  0  0  0  0  0  0  0  0  0  0  0
    2.1131    4.1043    0.0000 C   0  0  0  0  0  0  0  0  0  0  0  0
    2.2523    2.6108    0.0000 C   0  0  0  0  0  0  0  0  0  0  0  0
    3.6154    1.9846    0.0000 F   0  0  0  0  0  0  0  0  0  0  0  0
  1  2  2  0
  2  3  1  0
  3  4  1  0
  4  5  2  0
  5  6  1  0
  6  7  2  0
  7  8  1  0
  8  9  2  0
  2 10  1  0
 10 11  1  0
 11 12  1  0
 12 13  2  0
 13 14  1  0
 14 15  1  0
 14 16  2  0
 16 17  1  0
 17 18  2  0
 18 19  1  0
 20 19  1  6
 20 21  1  0
 21 22  1  0
 22 23  1  0
 23 24  1  0
 24 25  1  0
 25 26  1  6
  9  4  1  0
 19 10  2  0
 25 20  1  0
 18 12  1  0
M  CHG  1  22   1
M  END
> <Identifier>
WOMBAT36

> <hERG>
1

$$$$

     RDKit          2D

 28 30  0  0  0  0  0  0  0  0999 V2000
  -10.2746    1.3855    0.0000 C   0  0  0  0  0  0  0  0  0  0  0  0
   -9.2935    0.2508    0.0000 O   0  0  0  0  0  0  0  0  0  0  0  0
   -7.8203    0.5330    0.0000 C   0  0  0  0  0  0  0  0  0  0  0  0
   -7.3282    1.9499    0.0000 C   0  0  0  0  0  0  0  0  0  0  0  0
   -5.8549    2.2322    0.0000 C   0  0  0  0  0  0  0  0  0  0  0  0
   -4.8739    1.0975    0.0000 C   0  0  0  0  0  0  0  0  0  0  0  0
   -3.4007    1.3797    0.0000 C   0  0  0  0  0  0  0  0  0  0  0  0
   -2.4197    0.2450    0.0000 N   0  0  0  0  0  4  0  0  0  0  0  0
   -0.9465    0.5272    0.0000 C   0  0  0  0  0  0  0  0  0  0  0  0
    0.0346   -0.6075    0.0000 C   0  0  0  0  0  0  0  0  0  0  0  0
   -0.4576   -2.0244    0.0000 O   0  0  0  0  0  0  0  0  0  0  0  0
    1.5078   -0.3252    0.0000 C   0  0  0  0  0  0  0  0  0  0  0  0
    2.4888   -1.4599    0.0000 O   0  0  0  0  0  0  0  0  0  0  0  0
    3.9620   -1.1777    0.0000 C   0  0  0  0  0  0  0  0  0  0  0  0
    4.9430   -2.3124    0.0000 C   0  0  0  0  0  0  0  0  0  0  0  0
    6.4162   -2.0302    0.0000 C   0  0  0  0  0  0  0  0  0  0  0  0
    6.9084   -0.6132    0.0000 C   0  0  0  0  0  0  0  0  0  0  0  0
    8.3816   -0.3310    0.0000 N   0  0  0  0  0  0  0  0  0  0  0  0
    8.8738    1.0860    0.0000 C   0  0  0  0  0  0  0  0  0  0  0  0
   10.3470    1.3682    0.0000 O   0  0  0  0  0  0  0  0  0  0  0  0
    7.8928    2.2207    0.0000 C   0  0  0  0  0  0  0  0  0  0  0  0
    6.4196    1.9384    0.0000 C   0  0  0  0  0  0  0  0  0  0  0  0
    5.9274    0.5215    0.0000 C   0  0  0  0  0  0  0  0  0  0  0  0
    4.4542    0.2393    0.0000 C   0  0  0  0  0  0  0  0  0  0  0  0
   -5.3661   -0.3195    0.0000 C   0  0  0  0  0  0  0  0  0  0  0  0
   -6.8393   -0.6017    0.0000 C   0  0  0  0  0  0  0  0  0  0  0  0
   -7.3315   -2.0187    0.0000 O   0  0  0  0  0  0  0  0  0  0  0  0
   -6.3504   -3.1534    0.0000 C   0  0  0  0  0  0  0  0  0  0  0  0
  1  2  1  0
  2  3  1  0
  3  4  2  0
  4  5  1  0
  5  6  2  0
  6  7  1  0
  7  8  1  0
  8  9  1  0
  9 10  1  0
 10 11  1  6
 10 12  1  0
 12 13  1  0
 13 14  1  0
 14 15  2  0
 15 16  1  0
 16 17  2  0
 17 18  1  0
 18 19  1  0
 19 20  2  0
 19 21  1  0
 21 22  2  0
 22 23  1  0
 23 24  2  0
  6 25  1  0
 25 26  2  0
 26 27  1  0
 27 28  1  0
 26  3  1  0
 24 14  1  0
 23 17  1  0
M  CHG  1   8   1
M  END
> <Identifier>
OPC18790

> <hERG>
1

$$$$

     RDKit          2D

 29 31  0  0  0  0  0  0  0  0999 V2000
   -0.9513   -2.1262    0.0000 C   0  0  0  0  0  0  0  0  0  0  0  0
   -1.7834   -0.8782    0.0000 C   0  0  0  0  0  0  0  0  0  0  0  0
   -3.2802   -0.9748    0.0000 C   0  0  0  0  0  0  0  0  0  0  0  0
   -4.1123    0.2733    0.0000 N   0  0  0  0  0  0  0  0  0  0  0  0
   -5.6092    0.1767    0.0000 C   0  0  0  0  0  0  0  0  0  0  0  0
   -6.4413    1.4247    0.0000 N   0  0  0  0  0  0  0  0  0  0  0  0
   -7.9382    1.3281    0.0000 C   0  0  0  0  0  0  0  0  0  0  0  0
   -8.6030   -0.0165    0.0000 C   0  0  0  0  0  0  0  0  0  0  0  0
   -7.7709   -1.2646    0.0000 C   0  0  0  0  0  0  0  0  0  0  0  0
   -6.2740   -1.1680    0.0000 C   0  0  0  0  0  0  0  0  0  0  0  0
   -5.4419   -2.4160    0.0000 F   0  0  0  0  0  0  0  0  0  0  0  0
   -3.4476    1.6179    0.0000 C   0  0  0  0  0  0  0  0  0  0  0  0
   -1.9507    1.7145    0.0000 C   0  0  0  0  0  0  0  0  0  0  0  0
   -1.1186    0.4665    0.0000 N   0  0  0  0  0  0  0  0  0  0  0  0
    0.3783    0.5631    0.0000 C   0  0  0  0  0  0  0  0  0  0  0  0
    1.0431    1.9077    0.0000 N   0  0  0  0  0  0  0  0  0  0  0  0
    2.5400    2.0043    0.0000 C   0  0  0  0  0  0  0  0  0  0  0  0
    4.0369    2.1009    0.0000 N   0  0  0  0  0  0  0  0  0  0  0  0
    1.2104   -0.6850    0.0000 N   0  0  0  0  0  0  0  0  0  0  0  0
    2.7073   -0.5884    0.0000 C   0  0  0  0  0  0  0  0  0  0  0  0
    3.5394   -1.8364    0.0000 C   0  0  0  0  0  0  0  0  0  0  0  0
    5.0363   -1.7398    0.0000 C   0  0  0  0  0  0  0  0  0  0  0  0
    5.7011   -0.3952    0.0000 C   0  0  0  0  0  0  0  0  0  0  0  0
    7.1980   -0.2986    0.0000 C   0  0  0  0  0  0  0  0  0  0  0  0
    7.2946   -1.7955    0.0000 C   0  0  0  0  0  0  0  0  0  0  0  0
    7.1014    1.1983    0.0000 C   0  0  0  0  0  0  0  0  0  0  0  0
    8.6948   -0.2020    0.0000 C   0  0  0  0  0  0  0  0  0  0  0  0
    4.8690    0.8529    0.0000 C   0  0  0  0  0  0  0  0  0  0  0  0
    3.3721    0.7563    0.0000 C   0  0  0  0  0  0  0  0  0  0  0  0
  2  1  1  1
  2  3  1  0
  3  4  1  0
  4  5  1  0
  5  6  2  0
  6  7  1  0
  7  8  2  0
  8  9  1  0
  9 10  2  0
 10 11  1  0
  4 12  1  0
 12 13  1  0
 13 14  1  0
 14 15  1  0
 15 16  2  0
 16 17  1  0
 17 18  3  0
 15 19  1  0
 19 20  1  0
 20 21  2  0
 21 22  1  0
 22 23  2  0
 23 24  1  0
 24 25  1  0
 24 26  1  0
 24 27  1  0
 23 28  1  0
 28 29  2  0
 14  2  1  0
 29 20  1  0
 10  5  1  0
M  END
> <Identifier>
(2R)-N-(4-TERT-BUTYLPHENYL)-N'-CYANO-4-(3-FLUOROPYRIDIN-2-YL)-2-METHYLPIPERAZINE-1-CARBOXIMIDAMIDE

> <hERG>
1

$$$$

     RDKit          2D

 31 33  0  0  0  0  0  0  0  0999 V2000
   -1.5007   -4.1889    0.0000 C   0  0  0  0  0  0  0  0  0  0  0  0
   -0.9058   -2.8119    0.0000 C   0  0  0  0  0  0  0  0  0  0  0  0
    0.5841   -2.6386    0.0000 C   0  0  0  0  0  0  0  0  0  0  0  0
    1.1790   -1.2616    0.0000 C   0  0  0  0  0  0  0  0  0  0  0  0
    2.6690   -1.0883    0.0000 C   0  0  0  0  0  0  0  0  0  0  0  0
    3.6849   -2.1918    0.0000 O   0  0  0  0  0  0  0  0  0  0  0  0
    5.0484   -1.5666    0.0000 C   0  0  0  0  0  0  0  0  0  0  0  0
    6.4254   -2.1615    0.0000 C   0  0  0  0  0  0  0  0  0  0  0  0
    7.6291   -1.2664    0.0000 C   0  0  0  0  0  0  0  0  0  0  0  0
    7.4558    0.2236    0.0000 C   0  0  0  0  0  0  0  0  0  0  0  0
    6.0788    0.8185    0.0000 C   0  0  0  0  0  0  0  0  0  0  0  0
    4.8751   -0.0766    0.0000 C   0  0  0  0  0  0  0  0  0  0  0  0
    3.4045    0.2190    0.0000 C   0  0  0  0  0  0  0  0  0  0  0  0
    2.7793    1.5825    0.0000 C   0  0  0  0  0  0  0  0  0  0  0  0
    3.6475    2.8057    0.0000 O   0  0  0  0  0  0  0  0  0  0  0  0
    1.2859    1.7227    0.0000 C   0  0  0  0  0  0  0  0  0  0  0  0
    0.6606    3.0862    0.0000 C   0  0  0  0  0  0  0  0  0  0  0  0
   -0.8328    3.2265    0.0000 C   0  0  0  0  0  0  0  0  0  0  0  0
   -1.4581    4.5900    0.0000 I   0  0  0  0  0  0  0  0  0  0  0  0
   -1.7010    2.0033    0.0000 C   0  0  0  0  0  0  0  0  0  0  0  0
   -3.1944    2.1435    0.0000 O   0  0  0  0  0  0  0  0  0  0  0  0
   -4.0626    0.9203    0.0000 C   0  0  0  0  0  0  0  0  0  0  0  0
   -5.5560    1.0606    0.0000 C   0  0  0  0  0  0  0  0  0  0  0  0
   -6.4242   -0.1626    0.0000 N   0  0  0  0  0  4  0  0  0  0  0  0
   -7.9177   -0.0224    0.0000 C   0  0  0  0  0  0  0  0  0  0  0  0
   -8.7858   -1.2456    0.0000 C   0  0  0  0  0  0  0  0  0  0  0  0
   -5.7990   -1.5261    0.0000 C   0  0  0  0  0  0  0  0  0  0  0  0
   -6.6672   -2.7493    0.0000 C   0  0  0  0  0  0  0  0  0  0  0  0
   -1.0758    0.6398    0.0000 C   0  0  0  0  0  0  0  0  0  0  0  0
   -1.9439   -0.5834    0.0000 I   0  0  0  0  0  0  0  0  0  0  0  0
    0.4177    0.4995    0.0000 C   0  0  0  0  0  0  0  0  0  0  0  0
  1  2  1  0
  2  3  1  0
  3  4  1  0
  4  5  1  0
  5  6  1  0
  6  7  1  0
  7  8  2  0
  8  9  1  0
  9 10  2  0
 10 11  1  0
 11 12  2  0
 12 13  1  0
 13 14  1  0
 14 15  2  0
 14 16  1  0
 16 17  2  0
 17 18  1  0
 18 19  1  0
 18 20  2  0
 20 21  1  0
 21 22  1  0
 22 23  1  0
 23 24  1  0
 24 25  1  0
 25 26  1  0
 24 27  1  0
 27 28  1  0
 20 29  1  0
 29 30  1  0
 29 31  2  0
 13  5  2  0
 31 16  1  0
 12  7  1  0
M  CHG  1  24   1
M  END
> <Identifier>
AMIODARONE

> <hERG>
1

$$$$

     RDKit          2D

 26 28  0  0  0  0  0  0  0  0999 V2000
   -7.5485    1.5459    0.0000 C   0  0  0  0  0  0  0  0  0  0  0  0
   -7.4175    0.0516    0.0000 C   0  0  0  0  0  0  0  0  0  0  0  0
   -7.2864   -1.4427    0.0000 C   0  0  0  0  0  0  0  0  0  0  0  0
   -8.9118   -0.0794    0.0000 C   0  0  0  0  0  0  0  0  0  0  0  0
   -5.9232    0.1827    0.0000 C   0  0  0  0  0  0  0  0  0  0  0  0
   -5.2896    1.5423    0.0000 C   0  0  0  0  0  0  0  0  0  0  0  0
   -3.7953    1.6733    0.0000 C   0  0  0  0  0  0  0  0  0  0  0  0
   -2.9347    0.4448    0.0000 C   0  0  0  0  0  0  0  0  0  0  0  0
   -1.4404    0.5758    0.0000 N   0  0  0  0  0  0  0  0  0  0  0  0
   -0.5798   -0.6527    0.0000 C   0  0  0  0  0  0  0  0  0  0  0  0
   -1.2134   -2.0123    0.0000 O   0  0  0  0  0  0  0  0  0  0  0  0
    0.9145   -0.5217    0.0000 N   0  0  0  0  0  0  0  0  0  0  0  0
    1.7751   -1.7502    0.0000 C   0  0  0  0  0  0  0  0  0  0  0  0
    3.2694   -1.6191    0.0000 C   0  0  0  0  0  0  0  0  0  0  0  0
    3.9030   -0.2595    0.0000 N   0  0  0  0  0  0  0  0  0  0  0  0
    5.3973   -0.1285    0.0000 C   0  0  0  0  0  0  0  0  0  0  0  0
    6.2579   -1.3570    0.0000 N   0  0  0  0  0  0  0  0  0  0  0  0
    7.7521   -1.2260    0.0000 C   0  0  0  0  0  0  0  0  0  0  0  0
    8.3858    0.1336    0.0000 C   0  0  0  0  0  0  0  0  0  0  0  0
    7.5251    1.3622    0.0000 C   0  0  0  0  0  0  0  0  0  0  0  0
    6.0309    1.2311    0.0000 C   0  0  0  0  0  0  0  0  0  0  0  0
    5.1703    2.4597    0.0000 Cl  0  0  0  0  0  0  0  0  0  0  0  0
    3.0424    0.9690    0.0000 C   0  0  0  0  0  0  0  0  0  0  0  0
    1.5481    0.8379    0.0000 C   0  0  0  0  0  0  0  0  0  0  0  0
   -3.5683   -0.9148    0.0000 C   0  0  0  0  0  0  0  0  0  0  0  0
   -5.0626   -1.0459    0.0000 C   0  0  0  0  0  0  0  0  0  0  0  0
  1  2  1  0
  2  3  1  0
  2  4  1  0
  2  5  1  0
  5  6  2  0
  6  7  1  0
  7  8  2  0
  8  9  1  0
  9 10  1  0
 10 11  2  0
 10 12  1  0
 12 13  1  0
 13 14  1  0
 14 15  1  0
 15 16  1  0
 16 17  2  0
 17 18  1  0
 18 19  2  0
 19 20  1  0
 20 21  2  0
 21 22  1  0
 15 23  1  0
 23 24  1  0
  8 25  1  0
 25 26  2  0
 26  5  1  0
 24 12  1  0
 21 16  1  0
M  END
> <Identifier>
BCTC

> <hERG>
1

$$$$

     RDKit          2D

 31 35  0  0  0  0  0  0  0  0999 V2000
   -9.2270   -0.0846    0.0000 C   0  0  0  0  0  0  0  0  0  0  0  0
   -7.7761   -0.4653    0.0000 N   0  0  0  0  0  0  0  0  0  0  0  0
   -7.3804   -1.9122    0.0000 C   0  0  0  0  0  0  0  0  0  0  0  0
   -6.7210    0.6009    0.0000 C   0  0  0  0  0  0  0  0  0  0  0  0
   -5.2701    0.2202    0.0000 C   0  0  0  0  0  0  0  0  0  0  0  0
   -4.2150    1.2863    0.0000 C   0  0  0  0  0  0  0  0  0  0  0  0
   -2.7641    0.9056    0.0000 N   0  0  0  0  0  0  0  0  0  0  0  0
   -2.2193   -0.4920    0.0000 C   0  0  0  0  0  0  0  0  0  0  0  0
   -0.7218   -0.4057    0.0000 C   0  0  0  0  0  0  0  0  0  0  0  0
    0.2283   -1.5665    0.0000 C   0  0  0  0  0  0  0  0  0  0  0  0
    1.7258   -1.4802    0.0000 C   0  0  0  0  0  0  0  0  0  0  0  0
    2.5362   -0.2180    0.0000 C   0  0  0  0  0  0  0  0  0  0  0  0
    1.9914    1.1796    0.0000 C   0  0  0  0  0  0  0  0  0  0  0  0
    3.1522    2.1296    0.0000 N   0  0  0  0  0  0  0  0  0  0  0  0
    4.4144    1.3192    0.0000 C   0  0  0  0  0  0  0  0  0  0  0  0
    5.8613    1.7150    0.0000 C   0  0  0  0  0  0  0  0  0  0  0  0
    6.9274    0.6598    0.0000 C   0  0  0  0  0  0  0  0  0  0  0  0
    6.5467   -0.7911    0.0000 C   0  0  0  0  0  0  0  0  0  0  0  0
    5.0999   -1.1868    0.0000 C   0  0  0  0  0  0  0  0  0  0  0  0
    4.0337   -0.1317    0.0000 C   0  0  0  0  0  0  0  0  0  0  0  0
    2.2706   -2.8778    0.0000 C   0  0  0  0  0  0  0  0  0  0  0  0
    3.7215   -3.2585    0.0000 O   0  0  0  0  0  0  0  0  0  0  0  0
    1.1098   -3.8278    0.0000 N   0  0  0  0  0  0  0  0  0  0  0  0
   -0.1524   -3.0174    0.0000 C   0  0  0  0  0  0  0  0  0  0  0  0
   -1.5500   -3.5622    0.0000 O   0  0  0  0  0  0  0  0  0  0  0  0
   -0.3411    1.0452    0.0000 C   0  0  0  0  0  0  0  0  0  0  0  0
    0.9919    1.7331    0.0000 C   0  0  0  0  0  0  0  0  0  0  0  0
    1.0626    3.2315    0.0000 C   0  0  0  0  0  0  0  0  0  0  0  0
   -0.1996    4.0419    0.0000 C   0  0  0  0  0  0  0  0  0  0  0  0
   -1.5326    3.3540    0.0000 C   0  0  0  0  0  0  0  0  0  0  0  0
   -1.6033    1.8556    0.0000 C   0  0  0  0  0  0  0  0  0  0  0  0
  1  2  1  0
  2  3  1  0
  2  4  1  0
  4  5  1  0
  5  6  1  0
  6  7  1  0
  7  8  1  0
  8  9  2  0
  9 10  1  0
 10 11  2  0
 11 12  1  0
 12 13  2  0
 13 14  1  0
 14 15  1  0
 15 16  2  0
 16 17  1  0
 17 18  2  0
 18 19  1  0
 19 20  2  0
 11 21  1  0
 21 22  2  0
 21 23  1  0
 23 24  1  0
 24 25  2  0
  9 26  1  0
 26 27  2  0
 27 28  1  0
 28 29  2  0
 29 30  1  0
 30 31  2  0
 31  7  1  0
 24 10  1  0
 31 26  1  0
 20 12  1  0
 20 15  1  0
M  END
> <Identifier>
BISINDOLYLMALEIMIDE-I

> <hERG>
1

$$$$

     RDKit          2D

 39 41  0  0  0  0  0  0  0  0999 V2000
    0.4674   -5.9472    0.0000 C   0  0  0  0  0  0  0  0  0  0  0  0
    0.6068   -4.4537    0.0000 C   0  0  0  0  0  0  0  0  0  0  0  0
    1.9700   -3.8277    0.0000 C   0  0  0  0  0  0  0  0  0  0  0  0
    2.1094   -2.3342    0.0000 C   0  0  0  0  0  0  0  0  0  0  0  0
    3.4726   -1.7082    0.0000 C   0  0  0  0  0  0  0  0  0  0  0  0
    4.7802   -2.4430    0.0000 O   0  0  0  0  0  0  0  0  0  0  0  0
    5.8832   -1.4265    0.0000 C   0  0  0  0  0  0  0  0  0  0  0  0
    7.3767   -1.5659    0.0000 C   0  0  0  0  0  0  0  0  0  0  0  0
    8.2442   -0.3422    0.0000 C   0  0  0  0  0  0  0  0  0  0  0  0
    7.6182    1.0209    0.0000 C   0  0  0  0  0  0  0  0  0  0  0  0
    8.4858    2.2446    0.0000 N   0  0  0  0  0  0  0  0  0  0  0  0
    9.9793    2.1052    0.0000 S   0  0  0  0  0  0  0  0  0  0  0  0
   11.4728    1.9657    0.0000 C   0  0  0  0  0  0  0  0  0  0  0  0
    9.8398    0.6117    0.0000 O   0  0  0  0  0  0  0  0  0  0  0  0
   10.1187    3.5987    0.0000 O   0  0  0  0  0  0  0  0  0  0  0  0
    6.1247    1.1604    0.0000 C   0  0  0  0  0  0  0  0  0  0  0  0
    5.2572   -0.0633    0.0000 C   0  0  0  0  0  0  0  0  0  0  0  0
    3.7674   -0.2374    0.0000 C   0  0  0  0  0  0  0  0  0  0  0  0
    2.7508    0.8655    0.0000 C   0  0  0  0  0  0  0  0  0  0  0  0
    3.1977    2.2974    0.0000 O   0  0  0  0  0  0  0  0  0  0  0  0
    1.2873    0.5366    0.0000 C   0  0  0  0  0  0  0  0  0  0  0  0
    0.2707    1.6396    0.0000 C   0  0  0  0  0  0  0  0  0  0  0  0
   -1.1928    1.3107    0.0000 C   0  0  0  0  0  0  0  0  0  0  0  0
   -1.6397   -0.1211    0.0000 C   0  0  0  0  0  0  0  0  0  0  0  0
   -3.1032   -0.4500    0.0000 O   0  0  0  0  0  0  0  0  0  0  0  0
   -4.1198    0.6529    0.0000 C   0  0  0  0  0  0  0  0  0  0  0  0
   -5.5833    0.3240    0.0000 C   0  0  0  0  0  0  0  0  0  0  0  0
   -6.5999    1.4270    0.0000 C   0  0  0  0  0  0  0  0  0  0  0  0
   -8.0634    1.0981    0.0000 N   0  0  0  0  0  0  0  0  0  0  0  0
   -9.0800    2.2011    0.0000 C   0  0  0  0  0  0  0  0  0  0  0  0
  -10.5435    1.8722    0.0000 C   0  0  0  0  0  0  0  0  0  0  0  0
  -11.5600    2.9752    0.0000 C   0  0  0  0  0  0  0  0  0  0  0  0
  -13.0235    2.6463    0.0000 C   0  0  0  0  0  0  0  0  0  0  0  0
   -8.5103   -0.3337    0.0000 C   0  0  0  0  0  0  0  0  0  0  0  0
   -9.9738   -0.6626    0.0000 C   0  0  0  0  0  0  0  0  0  0  0  0
  -10.4207   -2.0945    0.0000 C   0  0  0  0  0  0  0  0  0  0  0  0
  -11.8842   -2.4234    0.0000 C   0  0  0  0  0  0  0  0  0  0  0  0
   -0.6231   -1.2241    0.0000 C   0  0  0  0  0  0  0  0  0  0  0  0
    0.8404   -0.8952    0.0000 C   0  0  0  0  0  0  0  0  0  0  0  0
  1  2  1  0
  2  3  1  0
  3  4  1  0
  4  5  1  0
  5  6  1  0
  6  7  1  0
  7  8  2  0
  8  9  1  0
  9 10  2  0
 10 11  1  0
 11 12  1  0
 12 13  1  0
 12 14  2  0
 12 15  2  0
 10 16  1  0
 16 17  2  0
 17 18  1  0
 18 19  1  0
 19 20  2  0
 19 21  1  0
 21 22  2  0
 22 23  1  0
 23 24  2  0
 24 25  1  0
 25 26  1  0
 26 27  1  0
 27 28  1  0
 28 29  1  0
 29 30  1  0
 30 31  1  0
 31 32  1  0
 32 33  1  0
 29 34  1  0
 34 35  1  0
 35 36  1  0
 36 37  1  0
 24 38  1  0
 38 39  2  0
 18  5  2  0
 39 21  1  0
 17  7  1  0
M  END
> <Identifier>
DRONEDARONE

> <hERG>
1

$$$$

     RDKit          2D

 31 35  0  0  0  0  0  0  0  0999 V2000
   -9.2270   -0.0846    0.0000 C   0  0  0  0  0  0  0  0  0  0  0  0
   -7.7761   -0.4653    0.0000 N   0  0  0  0  0  0  0  0  0  0  0  0
   -7.3804   -1.9122    0.0000 C   0  0  0  0  0  0  0  0  0  0  0  0
   -6.7210    0.6009    0.0000 C   0  0  0  0  0  0  0  0  0  0  0  0
   -5.2701    0.2202    0.0000 C   0  0  0  0  0  0  0  0  0  0  0  0
   -4.2150    1.2863    0.0000 C   0  0  0  0  0  0  0  0  0  0  0  0
   -2.7641    0.9056    0.0000 N   0  0  0  0  0  0  0  0  0  0  0  0
   -2.2193   -0.4920    0.0000 C   0  0  0  0  0  0  0  0  0  0  0  0
   -0.7218   -0.4057    0.0000 C   0  0  0  0  0  0  0  0  0  0  0  0
    0.2283   -1.5665    0.0000 C   0  0  0  0  0  0  0  0  0  0  0  0
    1.7258   -1.4802    0.0000 C   0  0  0  0  0  0  0  0  0  0  0  0
    2.5362   -0.2180    0.0000 C   0  0  0  0  0  0  0  0  0  0  0  0
    1.9914    1.1796    0.0000 C   0  0  0  0  0  0  0  0  0  0  0  0
    3.1522    2.1296    0.0000 N   0  0  0  0  0  0  0  0  0  0  0  0
    4.4144    1.3192    0.0000 C   0  0  0  0  0  0  0  0  0  0  0  0
    5.8613    1.7150    0.0000 C   0  0  0  0  0  0  0  0  0  0  0  0
    6.9274    0.6598    0.0000 C   0  0  0  0  0  0  0  0  0  0  0  0
    6.5467   -0.7911    0.0000 C   0  0  0  0  0  0  0  0  0  0  0  0
    5.0999   -1.1868    0.0000 C   0  0  0  0  0  0  0  0  0  0  0  0
    4.0337   -0.1317    0.0000 C   0  0  0  0  0  0  0  0  0  0  0  0
    2.2706   -2.8778    0.0000 C   0  0  0  0  0  0  0  0  0  0  0  0
    3.7215   -3.2585    0.0000 O   0  0  0  0  0  0  0  0  0  0  0  0
    1.1098   -3.8278    0.0000 N   0  0  0  0  0  0  0  0  0  0  0  0
   -0.1524   -3.0174    0.0000 C   0  0  0  0  0  0  0  0  0  0  0  0
   -1.5500   -3.5622    0.0000 O   0  0  0  0  0  0  0  0  0  0  0  0
   -0.3411    1.0452    0.0000 C   0  0  0  0  0  0  0  0  0  0  0  0
    0.9919    1.7331    0.0000 C   0  0  0  0  0  0  0  0  0  0  0  0
    1.0626    3.2315    0.0000 C   0  0  0  0  0  0  0  0  0  0  0  0
   -0.1996    4.0419    0.0000 C   0  0  0  0  0  0  0  0  0  0  0  0
   -1.5326    3.3540    0.0000 C   0  0  0  0  0  0  0  0  0  0  0  0
   -1.6033    1.8556    0.0000 C   0  0  0  0  0  0  0  0  0  0  0  0
  1  2  1  0
  2  3  1  0
  2  4  1  0
  4  5  1  0
  5  6  1  0
  6  7  1  0
  7  8  1  0
  8  9  2  0
  9 10  1  0
 10 11  2  0
 11 12  1  0
 12 13  2  0
 13 14  1  0
 14 15  1  0
 15 16  2  0
 16 17  1  0
 17 18  2  0
 18 19  1  0
 19 20  2  0
 11 21  1  0
 21 22  2  0
 21 23  1  0
 23 24  1  0
 24 25  2  0
  9 26  1  0
 26 27  2  0
 27 28  1  0
 28 29  2  0
 29 30  1  0
 30 31  2  0
 31  7  1  0
 24 10  1  0
 31 26  1  0
 20 12  1  0
 20 15  1  0
M  END
> <Identifier>
GF-109203X

> <hERG>
1

$$$$

     RDKit          2D

 27 29  0  0  0  0  0  0  0  0999 V2000
   -4.8884   -4.2996    0.0000 C   0  0  0  0  0  0  0  0  0  0  0  0
   -3.9734   -3.1109    0.0000 O   0  0  0  0  0  0  0  0  0  0  0  0
   -4.5453   -1.7242    0.0000 C   0  0  0  0  0  0  0  0  0  0  0  0
   -6.0322   -1.5261    0.0000 C   0  0  0  0  0  0  0  0  0  0  0  0
   -6.6040   -0.1394    0.0000 C   0  0  0  0  0  0  0  0  0  0  0  0
   -5.6890    1.0492    0.0000 C   0  0  0  0  0  0  0  0  0  0  0  0
   -4.2022    0.8511    0.0000 C   0  0  0  0  0  0  0  0  0  0  0  0
   -3.2872    2.0397    0.0000 C   0  0  0  0  0  0  0  0  0  0  0  0
   -3.8591    3.4264    0.0000 O   0  0  0  0  0  0  0  0  0  0  0  0
   -1.8003    1.8416    0.0000 C   0  0  0  0  0  0  0  0  0  0  0  0
   -1.2285    0.4549    0.0000 C   0  0  0  0  0  0  0  0  0  0  0  0
    0.2584    0.2568    0.0000 C   0  0  0  0  0  0  0  0  0  0  0  0
    1.1734    1.4454    0.0000 N   0  0  0  0  0  0  0  0  0  0  0  0
    2.6602    1.2473    0.0000 C   0  0  0  0  0  0  0  0  0  0  0  0
    3.2321   -0.1394    0.0000 C   0  0  0  0  0  0  0  0  0  0  0  0
    4.7190   -0.3375    0.0000 C   0  0  0  0  0  0  0  0  0  0  0  0
    5.2909   -1.7242    0.0000 C   0  0  0  0  0  0  0  0  0  0  0  0
    6.7777   -1.9223    0.0000 C   0  0  0  0  0  0  0  0  0  0  0  0
    7.6927   -0.7337    0.0000 C   0  0  0  0  0  0  0  0  0  0  0  0
    9.1796   -0.9318    0.0000 F   0  0  0  0  0  0  0  0  0  0  0  0
    7.1208    0.6530    0.0000 C   0  0  0  0  0  0  0  0  0  0  0  0
    5.6340    0.8511    0.0000 C   0  0  0  0  0  0  0  0  0  0  0  0
    0.6015    2.8321    0.0000 C   0  0  0  0  0  0  0  0  0  0  0  0
   -0.8853    3.0302    0.0000 C   0  0  0  0  0  0  0  0  0  0  0  0
   -3.6303   -0.5356    0.0000 C   0  0  0  0  0  0  0  0  0  0  0  0
   -2.1434   -0.7337    0.0000 O   0  0  0  0  0  0  0  0  0  0  0  0
   -1.5716   -2.1204    0.0000 C   0  0  0  0  0  0  0  0  0  0  0  0
  1  2  1  0
  2  3  1  0
  3  4  2  0
  4  5  1  0
  5  6  2  0
  6  7  1  0
  7  8  1  0
  8  9  1  6
  8 10  1  0
 10 11  1  0
 11 12  1  0
 12 13  1  0
 13 14  1  0
 14 15  1  0
 15 16  1  0
 16 17  2  0
 17 18  1  0
 18 19  2  0
 19 20  1  0
 19 21  1  0
 21 22  2  0
 13 23  1  0
 23 24  1  0
  7 25  2  0
 25 26  1  0
 26 27  1  0
 25  3  1  0
 24 10  1  0
 22 16  1  0
M  END
> <Identifier>
MDL-100907

> <hERG>
1

$$$$

     RDKit          2D

 27 30  0  0  0  0  0  0  0  0999 V2000
   -8.7603    1.4214    0.0000 O   0  0  0  0  0  0  0  0  0  0  0  0
   -7.3211    0.9984    0.0000 C   0  0  0  0  0  0  0  0  0  0  0  0
   -6.9679   -0.4594    0.0000 C   0  0  0  0  0  0  0  0  0  0  0  0
   -5.5287   -0.8824    0.0000 N   0  0  0  0  0  4  0  0  0  0  0  0
   -4.4429    0.1524    0.0000 C   0  0  0  0  0  0  0  0  0  0  0  0
   -3.0037   -0.2706    0.0000 C   0  0  0  0  0  0  0  0  0  0  0  0
   -2.6505   -1.7284    0.0000 N   0  0  0  0  0  4  0  0  0  0  0  0
   -1.2114   -2.1513    0.0000 C   0  0  0  0  0  0  0  0  0  0  0  0
   -0.1255   -1.1165    0.0000 C   0  0  0  0  0  0  0  0  0  0  0  0
    1.3136   -1.5395    0.0000 C   0  0  0  0  0  0  0  0  0  0  0  0
    2.3995   -0.5047    0.0000 N   0  0  0  0  0  0  0  0  0  0  0  0
    3.8386   -0.9276    0.0000 C   0  0  0  0  0  0  0  0  0  0  0  0
    4.1919   -2.3854    0.0000 C   0  0  0  0  0  0  0  0  0  0  0  0
    5.6310   -2.8084    0.0000 C   0  0  0  0  0  0  0  0  0  0  0  0
    6.7169   -1.7736    0.0000 C   0  0  0  0  0  0  0  0  0  0  0  0
    6.3636   -0.3158    0.0000 C   0  0  0  0  0  0  0  0  0  0  0  0
    4.9245    0.1072    0.0000 C   0  0  0  0  0  0  0  0  0  0  0  0
    4.5713    1.5650    0.0000 S   0  0  0  0  0  0  0  0  0  0  0  0
    3.1321    1.9880    0.0000 C   0  0  0  0  0  0  0  0  0  0  0  0
    2.7789    3.4458    0.0000 C   0  0  0  0  0  0  0  0  0  0  0  0
    1.3397    3.8688    0.0000 C   0  0  0  0  0  0  0  0  0  0  0  0
    0.2539    2.8339    0.0000 C   0  0  0  0  0  0  0  0  0  0  0  0
   -1.1853    3.2569    0.0000 Cl  0  0  0  0  0  0  0  0  0  0  0  0
    0.6071    1.3761    0.0000 C   0  0  0  0  0  0  0  0  0  0  0  0
    2.0463    0.9532    0.0000 C   0  0  0  0  0  0  0  0  0  0  0  0
   -3.7364   -2.7632    0.0000 C   0  0  0  0  0  0  0  0  0  0  0  0
   -5.1755   -2.3402    0.0000 C   0  0  0  0  0  0  0  0  0  0  0  0
  1  2  1  0
  2  3  1  0
  3  4  1  0
  4  5  1  0
  5  6  1  0
  6  7  1  0
  7  8  1  0
  8  9  1  0
  9 10  1  0
 10 11  1  0
 11 12  1  0
 12 13  2  0
 13 14  1  0
 14 15  2  0
 15 16  1  0
 16 17  2  0
 17 18  1  0
 18 19  1  0
 19 20  2  0
 20 21  1  0
 21 22  2  0
 22 23  1  0
 22 24  1  0
 24 25  2  0
  7 26  1  0
 26 27  1  0
 27  4  1  0
 25 11  1  0
 17 12  1  0
 25 19  1  0
M  CHG  2   4   1   7   1
M  END
> <Identifier>
PERPHENAZINE

> <hERG>
1

$$$$

     RDKit          2D

 24 29  0  0  0  0  0  0  0  0999 V2000
   -6.4978    0.2725    0.0000 C   0  0  0  0  0  0  0  0  0  0  0  0
   -5.3592   -0.7041    0.0000 C   0  0  0  0  0  0  0  0  0  0  0  0
   -3.9442   -0.2064    0.0000 C   0  0  0  0  0  0  0  0  0  0  0  0
   -3.6678    1.2679    0.0000 C   0  0  0  0  0  0  0  0  0  0  0  0
   -3.1700   -0.1471    0.0000 C   0  0  0  0  0  0  0  0  0  0  0  0
   -0.2521   -1.6618    0.0000 C   0  0  0  0  0  0  0  0  0  0  0  0
    1.1629   -1.1641    0.0000 C   0  0  0  0  0  0  0  0  0  0  0  0
    2.4796   -1.8826    0.0000 N   0  0  0  0  0  0  0  0  0  0  0  0
    2.6723   -3.3702    0.0000 C   0  0  0  0  0  0  0  0  0  0  0  0
    3.5699   -0.8524    0.0000 C   0  0  0  0  0  0  0  0  0  0  0  0
    5.0650   -0.9732    0.0000 C   0  0  0  0  0  0  0  0  0  0  0  0
    5.9172    0.2612    0.0000 C   0  0  0  0  0  0  0  0  0  0  0  0
    5.2743    1.6164    0.0000 C   0  0  0  0  0  0  0  0  0  0  0  0
    3.7792    1.7373    0.0000 C   0  0  0  0  0  0  0  0  0  0  0  0
    2.9269    0.5029    0.0000 C   0  0  0  0  0  0  0  0  0  0  0  0
    1.4394    0.3102    0.0000 C   0  0  0  0  0  0  0  0  0  0  0  0
    0.3008    1.2868    0.0000 C   0  0  0  0  0  0  0  0  0  0  0  0
   -1.1142    0.7891    0.0000 C   0  0  0  0  0  0  0  0  0  0  0  0
   -2.2527    1.7657    0.0000 C   0  0  0  0  0  0  0  0  0  0  0  0
   -0.8004    2.1409    0.0000 C   0  0  0  0  0  0  0  0  0  0  0  0
   -0.2503    3.5364    0.0000 O   0  0  0  0  0  0  0  0  0  0  0  0
   -1.3907   -0.6852    0.0000 N   0  0  0  0  0  0  0  0  0  0  0  0
   -2.8057   -1.1829    0.0000 C   0  0  0  0  0  0  0  0  0  0  0  0
   -3.0821   -2.6572    0.0000 O   0  0  0  0  0  0  0  0  0  0  0  0
  1  2  1  0
  3  2  1  1
  3  4  1  0
  4  5  1  1
  6  5  1  6
  6  7  1  0
  7  8  1  1
  8  9  1  0
  8 10  1  0
 10 11  2  0
 11 12  1  0
 12 13  2  0
 13 14  1  0
 14 15  2  0
 16 15  1  6
 16 17  1  0
 18 17  1  6
 19 18  1  1
 19 20  1  0
 20 21  1  1
 18 22  1  0
 22 23  1  0
 23 24  1  6
 23  3  1  0
 19  4  1  0
 22  6  1  0
 16  7  1  0
 15 10  1  0
 20 16  1  0
M  END
> <Identifier>
AJMALINE

> <hERG>
1

$$$$

     RDKit          2D

 20 22  0  0  0  0  0  0  0  0999 V2000
   -7.2488   -0.9938    0.0000 O   0  0  0  0  0  0  0  0  0  0  0  0
   -5.7929   -0.6329    0.0000 C   0  0  0  0  0  0  0  0  0  0  0  0
   -5.3775    0.8084    0.0000 C   0  0  0  0  0  0  0  0  0  0  0  0
   -3.9215    1.1693    0.0000 C   0  0  0  0  0  0  0  0  0  0  0  0
   -2.8810    0.0889    0.0000 C   0  0  0  0  0  0  0  0  0  0  0  0
   -1.4251    0.4498    0.0000 C   0  0  0  0  0  0  0  0  0  0  0  0
   -0.3846   -0.6307    0.0000 C   0  0  0  0  0  0  0  0  0  0  0  0
    1.0714   -0.2698    0.0000 C   0  0  0  0  0  0  0  0  0  0  0  0
    1.4868    1.1716    0.0000 C   0  0  0  0  0  0  0  0  0  0  0  0
    2.9427    1.5324    0.0000 N   0  0  0  0  0  0  0  0  0  0  0  0
    3.9833    0.4520    0.0000 C   0  0  0  0  0  0  0  0  0  0  0  0
    3.5678   -0.9893    0.0000 C   0  0  0  0  0  0  0  0  0  0  0  0
    4.6083   -2.0697    0.0000 C   0  0  0  0  0  0  0  0  0  0  0  0
    6.0643   -1.7088    0.0000 N   0  0  0  0  0  0  0  0  0  0  0  0
    6.4797   -0.2675    0.0000 C   0  0  0  0  0  0  0  0  0  0  0  0
    5.4392    0.8129    0.0000 C   0  0  0  0  0  0  0  0  0  0  0  0
    0.4463    2.2520    0.0000 C   0  0  0  0  0  0  0  0  0  0  0  0
   -1.0096    1.8911    0.0000 C   0  0  0  0  0  0  0  0  0  0  0  0
   -3.2964   -1.3525    0.0000 N   0  0  0  0  0  0  0  0  0  0  0  0
   -4.7524   -1.7133    0.0000 N   0  0  0  0  0  0  0  0  0  0  0  0
  1  2  2  0
  2  3  1  0
  3  4  1  0
  4  5  1  0
  5  6  1  0
  6  7  2  0
  7  8  1  0
  8  9  2  0
  9 10  1  0
 10 11  1  0
 11 12  2  0
 12 13  1  0
 13 14  2  0
 14 15  1  0
 15 16  2  0
  9 17  1  0
 17 18  2  0
  5 19  2  0
 19 20  1  0
 20  2  1  0
 18  6  1  0
 16 11  1  0
M  END
> <Identifier>
MCI-154

> <hERG>
1

$$$$

     RDKit          2D

 24 27  0  0  0  0  0  0  0  0999 V2000
   -7.0741    0.9804    0.0000 C   0  0  0  0  0  0  0  0  0  0  0  0
   -6.1661   -0.2135    0.0000 C   0  0  0  0  0  0  0  0  0  0  0  0
   -4.6781   -0.0242    0.0000 C   0  0  0  0  0  0  0  0  0  0  0  0
   -3.7701   -1.2182    0.0000 C   0  0  0  0  0  0  0  0  0  0  0  0
   -2.2821   -1.0288    0.0000 N   0  0  0  0  0  4  0  0  0  0  0  0
   -1.7021    0.3545    0.0000 C   0  0  0  0  0  0  0  0  0  0  0  0
   -2.6101    1.5485    0.0000 C   0  0  0  0  0  0  0  0  0  0  0  0
   -4.0981    1.3591    0.0000 C   0  0  0  0  0  0  0  0  0  0  0  0
   -2.8808    0.9029    0.0000 C   0  0  0  0  0  0  0  0  0  0  0  0
   -2.3965    0.2661    0.0000 C   0  0  0  0  0  0  0  0  0  0  0  0
   -0.2141    0.5438    0.0000 C   0  0  0  0  0  0  0  0  0  0  0  0
    0.3659    1.9272    0.0000 O   0  0  0  0  0  0  0  0  0  0  0  0
    0.6939   -0.6501    0.0000 C   0  0  0  0  0  0  0  0  0  0  0  0
    0.1138   -2.0334    0.0000 C   0  0  0  0  0  0  0  0  0  0  0  0
    1.0218   -3.2274    0.0000 C   0  0  0  0  0  0  0  0  0  0  0  0
    2.5098   -3.0381    0.0000 N   0  0  0  0  0  0  0  0  0  0  0  0
    3.0898   -1.6548    0.0000 C   0  0  0  0  0  0  0  0  0  0  0  0
    4.5778   -1.4654    0.0000 C   0  0  0  0  0  0  0  0  0  0  0  0
    5.1579   -0.0821    0.0000 C   0  0  0  0  0  0  0  0  0  0  0  0
    4.2499    1.1119    0.0000 C   0  0  0  0  0  0  0  0  0  0  0  0
    4.8299    2.4952    0.0000 O   0  0  0  0  0  0  0  0  0  0  0  0
    6.3179    2.6846    0.0000 C   0  0  0  0  0  0  0  0  0  0  0  0
    2.7619    0.9225    0.0000 C   0  0  0  0  0  0  0  0  0  0  0  0
    2.1819   -0.4608    0.0000 C   0  0  0  0  0  0  0  0  0  0  0  0
  1  2  2  0
  3  2  1  6
  3  4  1  0
  4  5  1  0
  5  6  1  0
  6  7  1  0
  8  7  1  1
  8  9  1  0
 10  9  1  6
 10 11  1  0
 11 12  1  1
 11 13  1  0
 13 14  2  0
 14 15  1  0
 15 16  2  0
 16 17  1  0
 17 18  2  0
 18 19  1  0
 19 20  2  0
 20 21  1  0
 21 22  1  0
 20 23  1  0
 23 24  2  0
  8  3  1  0
 24 13  1  0
 10  5  1  0
 24 17  1  0
M  CHG  1   5   1
M  END
> <Identifier>
QUINIDINE

> <hERG>
1

$$$$

     RDKit          2D

 30 33  0  0  0  0  0  0  0  0999 V2000
   -8.8891   -1.8348    0.0000 C   0  0  0  0  0  0  0  0  0  0  0  0
   -7.6555   -0.9815    0.0000 C   0  0  0  0  0  0  0  0  0  0  0  0
   -7.7776    0.5135    0.0000 C   0  0  0  0  0  0  0  0  0  0  0  0
   -6.5439    1.3668    0.0000 C   0  0  0  0  0  0  0  0  0  0  0  0
   -5.1881    0.7250    0.0000 C   0  0  0  0  0  0  0  0  0  0  0  0
   -5.0660   -0.7700    0.0000 C   0  0  0  0  0  0  0  0  0  0  0  0
   -3.7102   -1.4117    0.0000 N   0  0  0  0  0  0  0  0  0  0  0  0
   -2.4765   -0.5585    0.0000 C   0  0  0  0  0  0  0  0  0  0  0  0
   -2.5987    0.9365    0.0000 O   0  0  0  0  0  0  0  0  0  0  0  0
   -1.1208   -1.2002    0.0000 N   0  0  0  0  0  0  0  0  0  0  0  0
    0.1129   -0.3470    0.0000 C   0  0  0  0  0  0  0  0  0  0  0  0
    1.4169   -1.0882    0.0000 N   0  0  0  0  0  0  0  0  0  0  0  0
    2.8095   -0.5309    0.0000 C   0  0  0  0  0  0  0  0  0  0  0  0
    3.9159   -1.5438    0.0000 C   0  0  0  0  0  0  0  0  0  0  0  0
    3.5920   -3.0084    0.0000 C   0  0  0  0  0  0  0  0  0  0  0  0
    4.6983   -4.0212    0.0000 C   0  0  0  0  0  0  0  0  0  0  0  0
    6.1287   -3.5695    0.0000 C   0  0  0  0  0  0  0  0  0  0  0  0
    6.4527   -2.1049    0.0000 C   0  0  0  0  0  0  0  0  0  0  0  0
    5.3463   -1.0920    0.0000 C   0  0  0  0  0  0  0  0  0  0  0  0
    3.2421    0.9054    0.0000 C   0  0  0  0  0  0  0  0  0  0  0  0
    4.7371    1.0275    0.0000 C   0  0  0  0  0  0  0  0  0  0  0  0
    5.3788    2.3833    0.0000 C   0  0  0  0  0  0  0  0  0  0  0  0
    4.5256    3.6170    0.0000 C   0  0  0  0  0  0  0  0  0  0  0  0
    3.0306    3.4948    0.0000 C   0  0  0  0  0  0  0  0  0  0  0  0
    2.3888    2.1391    0.0000 C   0  0  0  0  0  0  0  0  0  0  0  0
    0.8923    2.2411    0.0000 N   0  0  0  0  0  0  0  0  0  0  0  0
    0.3349    3.6337    0.0000 C   0  0  0  0  0  0  0  0  0  0  0  0
   -0.1206    1.1347    0.0000 C   0  0  0  0  0  0  0  0  0  0  0  0
   -1.5569    1.5673    0.0000 O   0  0  0  0  0  0  0  0  0  0  0  0
   -6.2997   -1.6232    0.0000 C   0  0  0  0  0  0  0  0  0  0  0  0
  1  2  1  0
  2  3  2  0
  3  4  1  0
  4  5  2  0
  5  6  1  0
  6  7  1  0
  7  8  1  0
  8  9  2  0
  8 10  1  0
 11 10  1  1
 11 12  1  0
 12 13  2  0
 13 14  1  0
 14 15  2  0
 15 16  1  0
 16 17  2  0
 17 18  1  0
 18 19  2  0
 13 20  1  0
 20 21  2  0
 21 22  1  0
 22 23  2  0
 23 24  1  0
 24 25  2  0
 25 26  1  0
 26 27  1  0
 26 28  1  0
 28 29  2  0
  6 30  2  0
 30  2  1  0
 28 11  1  0
 19 14  1  0
 25 20  1  0
M  END
> <Identifier>
L-365260

> <hERG>
1

$$$$

     RDKit          2D

 29 32  0  0  0  0  0  0  0  0999 V2000
   -6.1722    4.2895    0.0000 C   0  0  0  0  0  0  0  0  0  0  0  0
   -6.7113    2.8898    0.0000 O   0  0  0  0  0  0  0  0  0  0  0  0
   -5.7687    1.7230    0.0000 C   0  0  0  0  0  0  0  0  0  0  0  0
   -4.2869    1.9560    0.0000 C   0  0  0  0  0  0  0  0  0  0  0  0
   -3.3442    0.7892    0.0000 C   0  0  0  0  0  0  0  0  0  0  0  0
   -3.8833   -0.6106    0.0000 C   0  0  0  0  0  0  0  0  0  0  0  0
   -2.9407   -1.7774    0.0000 C   0  0  0  0  0  0  0  0  0  0  0  0
   -3.4798   -3.1771    0.0000 O   0  0  0  0  0  0  0  0  0  0  0  0
   -1.4589   -1.5444    0.0000 N   0  0  0  0  0  0  0  0  0  0  0  0
   -0.5162   -2.7112    0.0000 C   0  0  0  0  0  0  0  0  0  0  0  0
    0.9656   -2.4782    0.0000 C   0  0  0  0  0  0  0  0  0  0  0  0
    1.5047   -1.0784    0.0000 N   0  0  0  0  0  0  0  0  0  0  0  0
    2.9865   -0.8454    0.0000 C   0  0  0  0  0  0  0  0  0  0  0  0
    3.9292   -2.0122    0.0000 C   0  0  0  0  0  0  0  0  0  0  0  0
    5.4110   -1.7792    0.0000 C   0  0  0  0  0  0  0  0  0  0  0  0
    5.9501   -0.3795    0.0000 C   0  0  0  0  0  0  0  0  0  0  0  0
    5.0074    0.7873    0.0000 C   0  0  0  0  0  0  0  0  0  0  0  0
    3.5257    0.5543    0.0000 C   0  0  0  0  0  0  0  0  0  0  0  0
    5.5466    2.1871    0.0000 C   0  0  0  0  0  0  0  0  0  0  0  0
    7.0284    2.4201    0.0000 C   0  0  0  0  0  0  0  0  0  0  0  0
    7.9710    1.2533    0.0000 C   0  0  0  0  0  0  0  0  0  0  0  0
    9.4528    1.4863    0.0000 O   0  0  0  0  0  0  0  0  0  0  0  0
    7.4319   -0.1465    0.0000 N   0  0  0  0  0  0  0  0  0  0  0  0
    0.5621    0.0884    0.0000 C   0  0  0  0  0  0  0  0  0  0  0  0
   -0.9197   -0.1446    0.0000 C   0  0  0  0  0  0  0  0  0  0  0  0
   -5.3651   -0.8435    0.0000 C   0  0  0  0  0  0  0  0  0  0  0  0
   -6.3078    0.3232    0.0000 C   0  0  0  0  0  0  0  0  0  0  0  0
   -7.7896    0.0903    0.0000 O   0  0  0  0  0  0  0  0  0  0  0  0
   -8.3287   -1.3095    0.0000 C   0  0  0  0  0  0  0  0  0  0  0  0
  1  2  1  0
  2  3  1  0
  3  4  2  0
  4  5  1  0
  5  6  2  0
  6  7  1  0
  7  8  2  0
  7  9  1  0
  9 10  1  0
 10 11  1  0
 11 12  1  0
 12 13  1  0
 13 14  2  0
 14 15  1  0
 15 16  2  0
 16 17  1  0
 17 18  2  0
 17 19  1  0
 19 20  1  0
 20 21  1  0
 21 22  2  0
 21 23  1  0
 12 24  1  0
 24 25  1  0
  6 26  1  0
 26 27  2  0
 27 28  1  0
 28 29  1  0
 27  3  1  0
 25  9  1  0
 18 13  1  0
 23 16  1  0
M  END
> <Identifier>
VESNARINONE

> <hERG>
1

$$$$

     RDKit          2D

 22 25  0  0  0  0  0  0  0  0999 V2000
    2.4763    2.2319    0.0000 F   0  0  0  0  0  0  0  0  0  0  0  0
    1.0026    2.5117    0.0000 C   0  0  0  0  0  0  0  0  0  0  0  0
    0.5081    3.9278    0.0000 C   0  0  0  0  0  0  0  0  0  0  0  0
   -0.9656    4.2076    0.0000 C   0  0  0  0  0  0  0  0  0  0  0  0
   -1.9448    3.0713    0.0000 N   0  0  0  0  0  4  0  0  0  0  0  0
   -1.4502    1.6552    0.0000 C   0  0  0  0  0  0  0  0  0  0  0  0
    0.0234    1.3754    0.0000 C   0  0  0  0  0  0  0  0  0  0  0  0
    0.5180   -0.0408    0.0000 C   0  0  0  0  0  0  0  0  0  0  0  0
   -0.3370   -1.2732    0.0000 C   0  0  0  0  0  0  0  0  0  0  0  0
   -1.8367   -1.3060    0.0000 C   0  0  0  0  0  0  0  0  0  0  0  0
   -2.5582   -2.6210    0.0000 C   0  0  0  0  0  0  0  0  0  0  0  0
   -4.0578   -2.6538    0.0000 C   0  0  0  0  0  0  0  0  0  0  0  0
   -4.8360   -1.3714    0.0000 C   0  0  0  0  0  0  0  0  0  0  0  0
   -4.1145   -0.0563    0.0000 C   0  0  0  0  0  0  0  0  0  0  0  0
   -2.6148   -0.0236    0.0000 C   0  0  0  0  0  0  0  0  0  0  0  0
    0.5709   -2.4673    0.0000 N   0  0  0  0  0  0  0  0  0  0  0  0
    1.9870   -1.9727    0.0000 C   0  0  0  0  0  0  0  0  0  0  0  0
    3.3021   -2.6942    0.0000 C   0  0  0  0  0  0  0  0  0  0  0  0
    4.5845   -1.9161    0.0000 C   0  0  0  0  0  0  0  0  0  0  0  0
    4.5518   -0.4164    0.0000 C   0  0  0  0  0  0  0  0  0  0  0  0
    3.2367    0.3051    0.0000 C   0  0  0  0  0  0  0  0  0  0  0  0
    1.9543   -0.4731    0.0000 C   0  0  0  0  0  0  0  0  0  0  0  0
  2  1  1  1
  2  3  1  0
  3  4  1  0
  4  5  1  0
  5  6  1  0
  6  7  1  0
  7  8  1  1
  8  9  2  0
  9 10  1  0
 10 11  2  0
 11 12  1  0
 12 13  2  0
 13 14  1  0
 14 15  2  0
  9 16  1  0
 16 17  1  0
 17 18  2  0
 18 19  1  0
 19 20  2  0
 20 21  1  0
 21 22  2  0
  7  2  1  0
 22  8  1  0
 15 10  1  0
 22 17  1  0
M  CHG  1   5   1
M  END
> <Identifier>
WOMBAT42

> <hERG>
1

$$$$

     RDKit          2D

 38 42  0  0  0  0  0  0  0  0999 V2000
   -5.2403   -5.1413    0.0000 N   0  0  0  0  0  0  0  0  0  0  0  0
   -5.2472   -3.6413    0.0000 C   0  0  0  0  0  0  0  0  0  0  0  0
   -5.2541   -2.1413    0.0000 C   0  0  0  0  0  0  0  0  0  0  0  0
   -6.5566   -1.3973    0.0000 C   0  0  0  0  0  0  0  0  0  0  0  0
   -6.5635    0.1027    0.0000 C   0  0  0  0  0  0  0  0  0  0  0  0
   -5.2679    0.8587    0.0000 C   0  0  0  0  0  0  0  0  0  0  0  0
   -5.2748    2.3587    0.0000 C   0  0  0  0  0  0  0  0  0  0  0  0
   -3.9793    3.1146    0.0000 N   0  0  0  0  0  0  0  0  0  0  0  0
   -3.8293    4.6071    0.0000 C   0  0  0  0  0  0  0  0  0  0  0  0
   -2.3636    4.9257    0.0000 N   0  0  0  0  0  0  0  0  0  0  0  0
   -1.6076    3.6302    0.0000 C   0  0  0  0  0  0  0  0  0  0  0  0
   -2.6061    2.5109    0.0000 C   0  0  0  0  0  0  0  0  0  0  0  0
   -2.2875    1.0451    0.0000 C   0  0  0  0  0  0  0  0  0  0  0  0
   -0.8588    0.5881    0.0000 N   0  0  0  0  0  4  0  0  0  0  0  0
   -0.5402   -0.8776    0.0000 C   0  0  0  0  0  0  0  0  0  0  0  0
    0.8885   -1.3346    0.0000 C   0  0  0  0  0  0  0  0  0  0  0  0
    1.2071   -2.8004    0.0000 N   0  0  0  0  0  4  0  0  0  0  0  0
    0.0971   -3.8092    0.0000 C   0  0  0  0  0  0  0  0  0  0  0  0
    0.4157   -5.2749    0.0000 C   0  0  0  0  0  0  0  0  0  0  0  0
    1.8444   -5.7319    0.0000 N   0  0  0  0  0  4  0  0  0  0  0  0
    2.9545   -4.7231    0.0000 C   0  0  0  0  0  0  0  0  0  0  0  0
    2.6358   -3.2573    0.0000 C   0  0  0  0  0  0  0  0  0  0  0  0
    0.2513    1.5970    0.0000 C   0  0  0  0  0  0  0  0  0  0  0  0
    0.0876    3.0880    0.0000 C   0  0  0  0  0  0  0  0  0  0  0  0
    1.4551    3.7044    0.0000 C   0  0  0  0  0  0  0  0  0  0  0  0
    2.4639    2.5943    0.0000 N   0  0  0  0  0  0  0  0  0  0  0  0
    3.9550    2.7580    0.0000 C   0  0  0  0  0  0  0  0  0  0  0  0
    4.8422    1.5485    0.0000 C   0  0  0  0  0  0  0  0  0  0  0  0
    4.2384    0.1754    0.0000 C   0  0  0  0  0  0  0  0  0  0  0  0
    5.1257   -1.0340    0.0000 C   0  0  0  0  0  0  0  0  0  0  0  0
    6.6167   -0.8704    0.0000 C   0  0  0  0  0  0  0  0  0  0  0  0
    7.2205    0.5028    0.0000 C   0  0  0  0  0  0  0  0  0  0  0  0
    8.7116    0.6664    0.0000 Cl  0  0  0  0  0  0  0  0  0  0  0  0
    6.3333    1.7122    0.0000 C   0  0  0  0  0  0  0  0  0  0  0  0
    1.7199    1.2919    0.0000 C   0  0  0  0  0  0  0  0  0  0  0  0
    2.3363   -0.0756    0.0000 O   0  0  0  0  0  0  0  0  0  0  0  0
   -3.9654    0.1147    0.0000 C   0  0  0  0  0  0  0  0  0  0  0  0
   -3.9585   -1.3853    0.0000 C   0  0  0  0  0  0  0  0  0  0  0  0
  1  2  3  0
  2  3  1  0
  3  4  2  0
  4  5  1  0
  5  6  2  0
  6  7  1  0
  7  8  1  0
  8  9  1  0
  9 10  2  0
 10 11  1  0
 11 12  2  0
 12 13  1  0
 13 14  1  0
 14 15  1  0
 15 16  1  0
 16 17  1  0
 17 18  1  0
 18 19  1  0
 19 20  1  0
 20 21  1  0
 21 22  1  0
 23 14  1  6
 23 24  1  0
 24 25  1  0
 25 26  1  0
 26 27  1  0
 27 28  1  0
 28 29  2  0
 29 30  1  0
 30 31  2  0
 31 32  1  0
 32 33  1  0
 32 34  2  0
 26 35  1  0
 35 36  2  0
  6 37  1  0
 37 38  2  0
 38  3  1  0
 12  8  1  0
 22 17  1  0
 35 23  1  0
 34 28  1  0
M  CHG  3  14   1  17   1  20   1
M  END
> <Identifier>
WOMBAT58

> <hERG>
1

$$$$

     RDKit          2D

 40 44  0  0  0  0  0  0  0  0999 V2000
   -6.4375    7.6486    0.0000 C   0  0  0  0  0  0  0  0  0  0  0  0
   -6.0015    6.2134    0.0000 S   0  0  0  0  0  0  0  0  0  0  0  0
   -7.4367    5.7774    0.0000 O   0  0  0  0  0  0  0  0  0  0  0  0
   -4.5663    6.6494    0.0000 O   0  0  0  0  0  0  0  0  0  0  0  0
   -5.5655    4.7782    0.0000 C   0  0  0  0  0  0  0  0  0  0  0  0
   -6.5904    3.6830    0.0000 C   0  0  0  0  0  0  0  0  0  0  0  0
   -6.1544    2.2477    0.0000 N   0  0  0  0  0  0  0  0  0  0  0  0
   -7.1794    1.1525    0.0000 C   0  0  0  0  0  0  0  0  0  0  0  0
   -6.7434   -0.2827    0.0000 C   0  0  0  0  0  0  0  0  0  0  0  0
   -7.6482   -1.4791    0.0000 C   0  0  0  0  0  0  0  0  0  0  0  0
   -6.7901   -2.7093    0.0000 C   0  0  0  0  0  0  0  0  0  0  0  0
   -5.3548   -2.2733    0.0000 C   0  0  0  0  0  0  0  0  0  0  0  0
   -4.1585   -3.1782    0.0000 C   0  0  0  0  0  0  0  0  0  0  0  0
   -4.3439   -4.6667    0.0000 C   0  0  0  0  0  0  0  0  0  0  0  0
   -3.1476   -5.5715    0.0000 C   0  0  0  0  0  0  0  0  0  0  0  0
   -1.7658   -4.9879    0.0000 C   0  0  0  0  0  0  0  0  0  0  0  0
   -0.5695   -5.8927    0.0000 N   0  0  0  0  0  0  0  0  0  0  0  0
    0.8123   -5.3091    0.0000 C   0  0  0  0  0  0  0  0  0  0  0  0
    0.9978   -3.8206    0.0000 N   0  0  0  0  0  0  0  0  0  0  0  0
   -0.1985   -2.9158    0.0000 C   0  0  0  0  0  0  0  0  0  0  0  0
   -0.0131   -1.4273    0.0000 N   0  0  0  0  0  0  0  0  0  0  0  0
    1.3687   -0.8436    0.0000 C   0  0  0  0  0  0  0  0  0  0  0  0
    2.5650   -1.7485    0.0000 C   0  0  0  0  0  0  0  0  0  0  0  0
    3.9468   -1.1648    0.0000 C   0  0  0  0  0  0  0  0  0  0  0  0
    4.1323    0.3236    0.0000 C   0  0  0  0  0  0  0  0  0  0  0  0
    5.5141    0.9073    0.0000 O   0  0  0  0  0  0  0  0  0  0  0  0
    6.7104    0.0024    0.0000 C   0  0  0  0  0  0  0  0  0  0  0  0
    8.0922    0.5861    0.0000 C   0  0  0  0  0  0  0  0  0  0  0  0
    9.2886   -0.3188    0.0000 C   0  0  0  0  0  0  0  0  0  0  0  0
   10.6704    0.2648    0.0000 C   0  0  0  0  0  0  0  0  0  0  0  0
   10.8558    1.7533    0.0000 C   0  0  0  0  0  0  0  0  0  0  0  0
    9.6595    2.6582    0.0000 C   0  0  0  0  0  0  0  0  0  0  0  0
    9.8449    4.1467    0.0000 F   0  0  0  0  0  0  0  0  0  0  0  0
    8.2777    2.0746    0.0000 C   0  0  0  0  0  0  0  0  0  0  0  0
    2.9360    1.2285    0.0000 C   0  0  0  0  0  0  0  0  0  0  0  0
    3.1214    2.7170    0.0000 Cl  0  0  0  0  0  0  0  0  0  0  0  0
    1.5542    0.6449    0.0000 C   0  0  0  0  0  0  0  0  0  0  0  0
   -1.5803   -3.4994    0.0000 C   0  0  0  0  0  0  0  0  0  0  0  0
   -2.7767   -2.5945    0.0000 C   0  0  0  0  0  0  0  0  0  0  0  0
   -5.3260   -0.7736    0.0000 O   0  0  0  0  0  0  0  0  0  0  0  0
  1  2  1  0
  2  3  2  0
  2  4  2  0
  2  5  1  0
  5  6  1  0
  6  7  1  0
  7  8  1  0
  8  9  1  0
  9 10  2  0
 10 11  1  0
 11 12  2  0
 12 13  1  0
 13 14  2  0
 14 15  1  0
 15 16  2  0
 16 17  1  0
 17 18  2  0
 18 19  1  0
 19 20  2  0
 20 21  1  0
 21 22  1  0
 22 23  2  0
 23 24  1  0
 24 25  2  0
 25 26  1  0
 26 27  1  0
 27 28  1  0
 28 29  2  0
 29 30  1  0
 30 31  2  0
 31 32  1  0
 32 33  1  0
 32 34  2  0
 25 35  1  0
 35 36  1  0
 35 37  2  0
 20 38  1  0
 38 39  2  0
 12 40  1  0
 40  9  1  0
 39 13  1  0
 38 16  1  0
 37 22  1  0
 34 28  1  0
M  END
> <Identifier>
LAPATINIB

> <hERG>
1

$$$$

     RDKit          2D

 20 22  0  0  0  0  0  0  0  0999 V2000
   -5.9628   -2.5182    0.0000 C   0  0  0  0  0  0  0  0  0  0  0  0
   -4.8630   -1.4982    0.0000 N   0  0  0  0  0  4  0  0  0  0  0  0
   -3.4297   -1.9407    0.0000 C   0  0  0  0  0  0  0  0  0  0  0  0
   -2.3299   -0.9207    0.0000 C   0  0  0  0  0  0  0  0  0  0  0  0
   -0.8967   -1.3631    0.0000 C   0  0  0  0  0  0  0  0  0  0  0  0
    0.2031   -0.3431    0.0000 C   0  0  0  0  0  0  0  0  0  0  0  0
    1.5993   -0.8914    0.0000 C   0  0  0  0  0  0  0  0  0  0  0  0
    1.5990   -2.3914    0.0000 C   0  0  0  0  0  0  0  0  0  0  0  0
    2.8979   -3.1417    0.0000 C   0  0  0  0  0  0  0  0  0  0  0  0
    4.1971   -2.3920    0.0000 C   0  0  0  0  0  0  0  0  0  0  0  0
    4.1974   -0.8920    0.0000 C   0  0  0  0  0  0  0  0  0  0  0  0
    2.8985   -0.1417    0.0000 C   0  0  0  0  0  0  0  0  0  0  0  0
    3.1224    1.3415    0.0000 C   0  0  0  0  0  0  0  0  0  0  0  0
    2.1024    2.4413    0.0000 C   0  0  0  0  0  0  0  0  0  0  0  0
    0.6066    2.3295    0.0000 C   0  0  0  0  0  0  0  0  0  0  0  0
   -0.0439    3.6811    0.0000 C   0  0  0  0  0  0  0  0  0  0  0  0
   -1.5397    3.7935    0.0000 C   0  0  0  0  0  0  0  0  0  0  0  0
   -2.3850    2.5544    0.0000 C   0  0  0  0  0  0  0  0  0  0  0  0
   -1.7344    1.2028    0.0000 C   0  0  0  0  0  0  0  0  0  0  0  0
   -0.2387    1.0903    0.0000 C   0  0  0  0  0  0  0  0  0  0  0  0
  1  2  1  0
  2  3  1  0
  3  4  1  0
  4  5  1  0
  5  6  1  0
  6  7  1  0
  7  8  2  0
  8  9  1  0
  9 10  2  0
 10 11  1  0
 11 12  2  0
 12 13  1  0
 13 14  2  0
 14 15  1  0
 15 16  2  0
 16 17  1  0
 17 18  2  0
 18 19  1  0
 19 20  2  0
 20  6  1  0
 12  7  1  0
 20 15  1  0
M  CHG  1   2   1
M  END
> <Identifier>
PROTRIPTYLINE

> <hERG>
1

$$$$

     RDKit          2D

 37 40  0  0  0  0  0  0  0  0999 V2000
   -4.9970   -2.7698    0.0000 C   0  0  0  0  0  0  0  0  0  0  0  0
   -4.9488   -1.2706    0.0000 C   0  0  0  0  0  0  0  0  0  0  0  0
   -6.4480   -1.2224    0.0000 O   0  0  0  0  0  0  0  0  0  0  0  0
   -4.9006    0.2286    0.0000 C   0  0  0  0  0  0  0  0  0  0  0  0
   -3.5781    0.9365    0.0000 C   0  0  0  0  0  0  0  0  0  0  0  0
   -3.5299    2.4357    0.0000 C   0  0  0  0  0  0  0  0  0  0  0  0
   -4.8042    3.2271    0.0000 C   0  0  0  0  0  0  0  0  0  0  0  0
   -6.1266    2.5192    0.0000 C   0  0  0  0  0  0  0  0  0  0  0  0
   -6.1749    1.0200    0.0000 C   0  0  0  0  0  0  0  0  0  0  0  0
   -3.4496   -1.3188    0.0000 C   0  0  0  0  0  0  0  0  0  0  0  0
   -2.7417   -2.6413    0.0000 C   0  0  0  0  0  0  0  0  0  0  0  0
   -1.2425   -2.6895    0.0000 C   0  0  0  0  0  0  0  0  0  0  0  0
   -0.4511   -1.4152    0.0000 C   0  0  0  0  0  0  0  0  0  0  0  0
    1.0481   -1.4634    0.0000 C   0  0  0  0  0  0  0  0  0  0  0  0
    1.7560   -2.7859    0.0000 C   0  0  0  0  0  0  0  0  0  0  0  0
    0.9646   -4.0602    0.0000 C   0  0  0  0  0  0  0  0  0  0  0  0
    1.6725   -5.3826    0.0000 C   0  0  0  0  0  0  0  0  0  0  0  0
    3.1717   -5.4309    0.0000 N   0  0  0  0  0  4  0  0  0  0  0  0
    3.8796   -6.7533    0.0000 O   0  0  0  0  0  0  0  0  0  0  0  0
    3.9631   -4.1566    0.0000 C   0  0  0  0  0  0  0  0  0  0  0  0
    3.2552   -2.8341    0.0000 C   0  0  0  0  0  0  0  0  0  0  0  0
    1.8395   -0.1892    0.0000 C   0  0  0  0  0  0  0  0  0  0  0  0
    3.3387   -0.2374    0.0000 C   0  0  0  0  0  0  0  0  0  0  0  0
    4.1301    1.0369    0.0000 C   0  0  0  0  0  0  0  0  0  0  0  0
    3.4222    2.3594    0.0000 C   0  0  0  0  0  0  0  0  0  0  0  0
    4.2135    3.6336    0.0000 O   0  0  0  0  0  0  0  0  0  0  0  0
    5.7128    3.5854    0.0000 C   0  0  0  0  0  0  0  0  0  0  0  0
    6.5041    4.8597    0.0000 F   0  0  0  0  0  0  0  0  0  0  0  0
    6.4206    2.2629    0.0000 F   0  0  0  0  0  0  0  0  0  0  0  0
    1.9230    2.4076    0.0000 C   0  0  0  0  0  0  0  0  0  0  0  0
    1.2151    3.7300    0.0000 O   0  0  0  0  0  0  0  0  0  0  0  0
   -0.2841    3.7782    0.0000 C   0  0  0  0  0  0  0  0  0  0  0  0
   -0.9920    5.1007    0.0000 F   0  0  0  0  0  0  0  0  0  0  0  0
   -1.0755    2.5040    0.0000 F   0  0  0  0  0  0  0  0  0  0  0  0
    1.1316    1.1333    0.0000 C   0  0  0  0  0  0  0  0  0  0  0  0
   -1.1590   -0.0928    0.0000 C   0  0  0  0  0  0  0  0  0  0  0  0
   -2.6582   -0.0446    0.0000 N   0  0  0  0  0  0  0  0  0  0  0  0
  2  1  1  1
  2  3  1  0
  2  4  1  0
  4  5  2  0
  5  6  1  0
  6  7  2  0
  7  8  1  0
  8  9  2  0
  2 10  1  0
 10 11  1  0
 11 12  2  0
 12 13  1  0
 14 13  1  1
 14 15  1  0
 15 16  2  0
 16 17  1  0
 17 18  2  0
 18 19  1  0
 18 20  1  0
 20 21  2  0
 14 22  1  0
 22 23  2  0
 23 24  1  0
 24 25  2  0
 25 26  1  0
 26 27  1  0
 27 28  1  0
 27 29  1  0
 25 30  1  0
 30 31  1  0
 31 32  1  0
 32 33  1  0
 32 34  1  0
 30 35  2  0
 13 36  2  0
 36 37  1  0
  9  4  1  0
 10 37  1  6
 21 15  1  0
 35 22  1  0
M  CHG  1  18   1
M  END
> <Identifier>
WOMBAT46

> <hERG>
1

$$$$

     RDKit          2D

 29 32  0  0  0  0  0  0  0  0999 V2000
   -9.9377    0.2751    0.0000 C   0  0  0  0  0  0  0  0  0  0  0  0
   -8.8237   -0.7294    0.0000 C   0  0  0  0  0  0  0  0  0  0  0  0
   -7.3968   -0.2668    0.0000 N   0  0  0  0  0  0  0  0  0  0  0  0
   -7.0839    1.2002    0.0000 C   0  0  0  0  0  0  0  0  0  0  0  0
   -8.1980    2.2046    0.0000 C   0  0  0  0  0  0  0  0  0  0  0  0
   -6.2828   -1.2713    0.0000 C   0  0  0  0  0  0  0  0  0  0  0  0
   -4.8559   -0.8088    0.0000 C   0  0  0  0  0  0  0  0  0  0  0  0
   -4.5430    0.6583    0.0000 C   0  0  0  0  0  0  0  0  0  0  0  0
   -3.1161    1.1208    0.0000 C   0  0  0  0  0  0  0  0  0  0  0  0
   -2.0021    0.1164    0.0000 C   0  0  0  0  0  0  0  0  0  0  0  0
   -2.3149   -1.3507    0.0000 C   0  0  0  0  0  0  0  0  0  0  0  0
   -3.7418   -1.8132    0.0000 C   0  0  0  0  0  0  0  0  0  0  0  0
   -1.2009   -2.3551    0.0000 C   0  0  0  0  0  0  0  0  0  0  0  0
    0.2260   -1.8926    0.0000 C   0  0  0  0  0  0  0  0  0  0  0  0
    0.5389   -0.4256    0.0000 C   0  0  0  0  0  0  0  0  0  0  0  0
    1.9658    0.0370    0.0000 N   0  0  0  0  0  0  0  0  0  0  0  0
    3.0798   -0.9675    0.0000 C   0  0  0  0  0  0  0  0  0  0  0  0
    4.5067   -0.5049    0.0000 C   0  0  0  0  0  0  0  0  0  0  0  0
    4.8196    0.9621    0.0000 N   0  0  0  0  0  0  0  0  0  0  0  0
    6.2465    1.4247    0.0000 C   0  0  0  0  0  0  0  0  0  0  0  0
    7.3605    0.4202    0.0000 C   0  0  0  0  0  0  0  0  0  0  0  0
    8.8279    0.7311    0.0000 C   0  0  0  0  0  0  0  0  0  0  0  0
    9.5771   -0.5685    0.0000 C   0  0  0  0  0  0  0  0  0  0  0  0
    8.5726   -1.6825    0.0000 S   0  0  0  0  0  0  0  0  0  0  0  0
    7.2027   -1.0715    0.0000 C   0  0  0  0  0  0  0  0  0  0  0  0
    3.7055    1.9666    0.0000 C   0  0  0  0  0  0  0  0  0  0  0  0
    2.2786    1.5040    0.0000 C   0  0  0  0  0  0  0  0  0  0  0  0
    1.1646    2.5085    0.0000 O   0  0  0  0  0  0  0  0  0  0  0  0
   -0.5752    0.5789    0.0000 C   0  0  0  0  0  0  0  0  0  0  0  0
  1  2  1  0
  2  3  1  0
  3  4  1  0
  4  5  1  0
  3  6  1  0
  6  7  1  0
  7  8  2  0
  8  9  1  0
  9 10  2  0
 10 11  1  0
 11 12  2  0
 11 13  1  0
 13 14  1  0
 14 15  1  0
 15 16  1  1
 16 17  1  0
 17 18  1  0
 18 19  1  0
 19 20  1  0
 20 21  1  0
 21 22  1  0
 22 23  2  0
 23 24  1  0
 24 25  1  0
 19 26  1  0
 26 27  1  0
 27 28  2  0
 15 29  1  0
 12  7  1  0
 27 16  1  0
 29 10  1  0
 25 21  2  0
M  END
> <Identifier>
AMINOMETHYL TETRAHYDRONAPHTHALENE KETOPIPERAZINE 2D

> <hERG>
1

$$$$

     RDKit          2D

 23 25  0  0  0  0  0  0  0  0999 V2000
    1.5769    4.1548    0.0000 C   0  0  0  0  0  0  0  0  0  0  0  0
    0.1204    3.7962    0.0000 C   0  0  0  0  0  0  0  0  0  0  0  0
   -0.2972    2.3555    0.0000 O   0  0  0  0  0  0  0  0  0  0  0  0
   -1.7537    1.9968    0.0000 C   0  0  0  0  0  0  0  0  0  0  0  0
   -2.7925    3.0789    0.0000 O   0  0  0  0  0  0  0  0  0  0  0  0
   -2.1713    0.5562    0.0000 C   0  0  0  0  0  0  0  0  0  0  0  0
   -1.1325   -0.5259    0.0000 C   0  0  0  0  0  0  0  0  0  0  0  0
    0.3240   -0.1672    0.0000 O   0  0  0  0  0  0  0  0  0  0  0  0
    1.3629   -1.2493    0.0000 C   0  0  0  0  0  0  0  0  0  0  0  0
    0.9452   -2.6899    0.0000 O   0  0  0  0  0  0  0  0  0  0  0  0
    2.8193   -0.8906    0.0000 C   0  0  0  0  0  0  0  0  0  0  0  0
    3.8582   -1.9726    0.0000 C   0  0  0  0  0  0  0  0  0  0  0  0
    5.3147   -1.6140    0.0000 C   0  0  0  0  0  0  0  0  0  0  0  0
    5.7323   -0.1733    0.0000 C   0  0  0  0  0  0  0  0  0  0  0  0
    4.6935    0.9087    0.0000 C   0  0  0  0  0  0  0  0  0  0  0  0
    3.2370    0.5501    0.0000 C   0  0  0  0  0  0  0  0  0  0  0  0
   -1.5501   -1.9666    0.0000 C   0  0  0  0  0  0  0  0  0  0  0  0
   -3.0475   -2.1591    0.0000 C   0  0  0  0  0  0  0  0  0  0  0  0
   -4.5436   -2.0502    0.0000 C   0  0  0  0  0  0  0  0  0  0  0  0
   -4.9022   -0.5937    0.0000 C   0  0  0  0  0  0  0  0  0  0  0  0
   -3.6278    0.1975    0.0000 C   0  0  0  0  0  0  0  0  0  0  0  0
   -2.4816   -0.7700    0.0000 N   0  0  0  0  0  4  0  0  0  0  0  0
   -1.6844   -0.7724    0.0000 C   0  0  0  0  0  0  0  0  0  0  0  0
  1  2  1  0
  2  3  1  0
  3  4  1  0
  4  5  2  0
  6  4  1  6
  6  7  1  0
  7  8  1  1
  8  9  1  0
  9 10  2  0
  9 11  1  0
 11 12  2  0
 12 13  1  0
 13 14  2  0
 14 15  1  0
 15 16  2  0
  7 17  1  0
 18 17  1  6
 18 19  1  0
 19 20  1  0
 21 20  1  6
 21 22  1  0
 22 23  1  0
 21  6  1  0
 16 11  1  0
 22 18  1  0
M  CHG  1  22   1
M  END
> <Identifier>
COCAETHYLENE

> <hERG>
1

$$$$

     RDKit          2D

 31 35  0  0  0  0  0  0  0  0999 V2000
    2.8788    2.3943    0.0000 C   0  0  0  0  0  0  0  0  0  0  0  0
    3.9445    1.3388    0.0000 C   0  0  0  0  0  0  0  0  0  0  0  0
    5.3915    1.7340    0.0000 N   0  0  0  0  0  0  0  0  0  0  0  0
    6.4573    0.6785    0.0000 C   0  0  0  0  0  0  0  0  0  0  0  0
    6.0760   -0.7723    0.0000 N   0  0  0  0  0  0  0  0  0  0  0  0
    4.6290   -1.1675    0.0000 C   0  0  0  0  0  0  0  0  0  0  0  0
    4.2478   -2.6182    0.0000 O   0  0  0  0  0  0  0  0  0  0  0  0
    3.5633   -0.1120    0.0000 C   0  0  0  0  0  0  0  0  0  0  0  0
    2.1163   -0.5072    0.0000 C   0  0  0  0  0  0  0  0  0  0  0  0
    1.0505    0.5484    0.0000 C   0  0  0  0  0  0  0  0  0  0  0  0
   -0.3965    0.1532    0.0000 N   0  0  0  0  0  0  0  0  0  0  0  0
   -1.4622    1.2087    0.0000 C   0  0  0  0  0  0  0  0  0  0  0  0
   -2.9092    0.8135    0.0000 C   0  0  0  0  0  0  0  0  0  0  0  0
   -3.2905   -0.6373    0.0000 C   0  0  0  0  0  0  0  0  0  0  0  0
   -4.7375   -1.0325    0.0000 C   0  0  0  0  0  0  0  0  0  0  0  0
   -5.2683   -2.4354    0.0000 N   0  0  0  0  0  0  0  0  0  0  0  0
   -6.7666   -2.3642    0.0000 O   0  0  0  0  0  0  0  0  0  0  0  0
   -7.1618   -0.9172    0.0000 C   0  0  0  0  0  0  0  0  0  0  0  0
   -8.5016   -0.2426    0.0000 C   0  0  0  0  0  0  0  0  0  0  0  0
   -8.5873    1.2549    0.0000 C   0  0  0  0  0  0  0  0  0  0  0  0
   -9.9271    1.9295    0.0000 F   0  0  0  0  0  0  0  0  0  0  0  0
   -7.3332    2.0779    0.0000 C   0  0  0  0  0  0  0  0  0  0  0  0
   -5.9935    1.4034    0.0000 C   0  0  0  0  0  0  0  0  0  0  0  0
   -5.9077   -0.0941    0.0000 C   0  0  0  0  0  0  0  0  0  0  0  0
   -2.2247   -1.6928    0.0000 C   0  0  0  0  0  0  0  0  0  0  0  0
   -0.7777   -1.2976    0.0000 C   0  0  0  0  0  0  0  0  0  0  0  0
    7.1418   -1.8278    0.0000 C   0  0  0  0  0  0  0  0  0  0  0  0
    8.5888   -1.4326    0.0000 C   0  0  0  0  0  0  0  0  0  0  0  0
    8.9700    0.0181    0.0000 C   0  0  0  0  0  0  0  0  0  0  0  0
    7.9043    1.0737    0.0000 C   0  0  0  0  0  0  0  0  0  0  0  0
    8.2855    2.5244    0.0000 O   0  0  0  0  0  0  0  0  0  0  0  0
  1  2  1  0
  2  3  1  0
  3  4  2  0
  4  5  1  0
  5  6  1  0
  6  7  2  0
  6  8  1  0
  8  9  1  0
  9 10  1  0
 10 11  1  0
 11 12  1  0
 12 13  1  0
 13 14  1  0
 14 15  1  0
 15 16  2  0
 16 17  1  0
 17 18  1  0
 18 19  2  0
 19 20  1  0
 20 21  1  0
 20 22  2  0
 22 23  1  0
 23 24  2  0
 14 25  1  0
 25 26  1  0
  5 27  1  0
 27 28  1  0
 28 29  1  0
 29 30  1  0
 30 31  1  1
  8  2  2  0
 26 11  1  0
 30  4  1  0
 24 15  1  0
 24 18  1  0
M  END
> <Identifier>
PALIPERIDONE

> <hERG>
1

$$$$

     RDKit          2D

 20 20  0  0  0  0  0  0  0  0999 V2000
   -6.5816    1.3623    0.0000 C   0  0  0  0  0  0  0  0  0  0  0  0
   -5.3402    0.5202    0.0000 C   0  0  0  0  0  0  0  0  0  0  0  0
   -3.9903    1.1743    0.0000 C   0  0  0  0  0  0  0  0  0  0  0  0
   -2.7489    0.3323    0.0000 N   0  0  0  0  0  0  0  0  0  0  0  0
   -2.8574   -1.1638    0.0000 C   0  0  0  0  0  0  0  0  0  0  0  0
   -4.2073   -1.8179    0.0000 C   0  0  0  0  0  0  0  0  0  0  0  0
   -4.3159   -3.3139    0.0000 C   0  0  0  0  0  0  0  0  0  0  0  0
   -1.3990    0.9863    0.0000 C   0  0  0  0  0  0  0  0  0  0  0  0
   -0.1576    0.1443    0.0000 C   0  0  0  0  0  0  0  0  0  0  0  0
    1.1922    0.7984    0.0000 C   0  0  0  0  0  0  0  0  0  0  0  0
    1.3008    2.2944    0.0000 C   0  0  0  0  0  0  0  0  0  0  0  0
    2.6507    2.9485    0.0000 C   0  0  0  0  0  0  0  0  0  0  0  0
    3.8920    2.1065    0.0000 C   0  0  0  0  0  0  0  0  0  0  0  0
    3.7835    0.6104    0.0000 C   0  0  0  0  0  0  0  0  0  0  0  0
    2.4336   -0.0437    0.0000 C   0  0  0  0  0  0  0  0  0  0  0  0
    2.6385   -1.5296    0.0000 C   0  0  0  0  0  0  0  0  0  0  0  0
    4.1151   -1.7939    0.0000 C   0  0  0  0  0  0  0  0  0  0  0  0
    4.7691   -3.1438    0.0000 O   0  0  0  0  0  0  0  0  0  0  0  0
    4.8227   -0.4713    0.0000 N   0  0  0  0  0  0  0  0  0  0  0  0
    0.0000    3.9485    0.0000 Cl  0  0  0  0  0  0  0  0  0  0  0  0
  1  2  1  0
  2  3  1  0
  3  4  1  0
  4  5  1  0
  5  6  1  0
  6  7  1  0
  4  8  1  0
  8  9  1  0
  9 10  1  0
 10 11  2  0
 11 12  1  0
 12 13  2  0
 13 14  1  0
 14 15  2  0
 15 16  1  0
 16 17  1  0
 17 18  2  0
 17 19  1  0
 15 10  1  0
 19 14  1  0
M  END
> <Identifier>
ROPINIROLE HYDROCHLORIDE

> <hERG>
1

$$$$

     RDKit          2D

 31 35  0  0  0  0  0  0  0  0999 V2000
    0.7961    4.7735    0.0000 O   0  0  0  0  0  0  0  0  0  0  0  0
   -0.4846    3.9928    0.0000 C   0  0  0  0  0  0  0  0  0  0  0  0
   -1.8691    4.5700    0.0000 N   0  0  0  0  0  0  0  0  0  0  0  0
   -2.8459    3.4317    0.0000 C   0  0  0  0  0  0  0  0  0  0  0  0
   -2.0652    2.1509    0.0000 C   0  0  0  0  0  0  0  0  0  0  0  0
   -2.6424    0.7664    0.0000 C   0  0  0  0  0  0  0  0  0  0  0  0
   -4.1300    0.5741    0.0000 C   0  0  0  0  0  0  0  0  0  0  0  0
   -4.7072   -0.8104    0.0000 C   0  0  0  0  0  0  0  0  0  0  0  0
   -3.7969   -2.0026    0.0000 C   0  0  0  0  0  0  0  0  0  0  0  0
   -4.3741   -3.3871    0.0000 F   0  0  0  0  0  0  0  0  0  0  0  0
   -2.3093   -1.8102    0.0000 C   0  0  0  0  0  0  0  0  0  0  0  0
   -1.7320   -0.4257    0.0000 C   0  0  0  0  0  0  0  0  0  0  0  0
   -0.6058    2.4977    0.0000 C   0  0  0  0  0  0  0  0  0  0  0  0
   -0.8826    1.0234    0.0000 C   0  0  0  0  0  0  0  0  0  0  0  0
    0.2558    0.0466    0.0000 C   0  0  0  0  0  0  0  0  0  0  0  0
    1.6709    0.5440    0.0000 N   0  0  0  0  0  0  0  0  0  0  0  0
    2.8092   -0.4328    0.0000 C   0  0  0  0  0  0  0  0  0  0  0  0
    1.6496   -1.3842    0.0000 C   0  0  0  0  0  0  0  0  0  0  0  0
    0.2458   -0.8556    0.0000 C   0  0  0  0  0  0  0  0  0  0  0  0
   -0.9138   -1.8071    0.0000 C   0  0  0  0  0  0  0  0  0  0  0  0
   -0.6697   -3.2871    0.0000 C   0  0  0  0  0  0  0  0  0  0  0  0
   -1.8293   -4.2385    0.0000 F   0  0  0  0  0  0  0  0  0  0  0  0
    0.7341   -3.8156    0.0000 C   0  0  0  0  0  0  0  0  0  0  0  0
    1.8937   -2.8642    0.0000 C   0  0  0  0  0  0  0  0  0  0  0  0
    3.5735    0.8579    0.0000 C   0  0  0  0  0  0  0  0  0  0  0  0
    5.0735    0.8413    0.0000 C   0  0  0  0  0  0  0  0  0  0  0  0
    5.8091   -0.4659    0.0000 C   0  0  0  0  0  0  0  0  0  0  0  0
    5.0448   -1.7566    0.0000 C   0  0  0  0  0  0  0  0  0  0  0  0
    3.5449   -1.7400    0.0000 C   0  0  0  0  0  0  0  0  0  0  0  0
    1.9477    2.0183    0.0000 C   0  0  0  0  0  0  0  0  0  0  0  0
    0.8093    2.9951    0.0000 C   0  0  0  0  0  0  0  0  0  0  0  0
  1  2  2  0
  2  3  1  0
  3  4  1  0
  4  5  1  0
  5  6  1  6
  6  7  2  0
  7  8  1  0
  8  9  2  0
  9 10  1  0
  9 11  1  0
 11 12  2  0
  5 13  1  0
 13 14  1  0
 14 15  1  0
 15 16  1  0
 16 17  1  0
 17 18  1  0
 18 19  2  0
 19 20  1  0
 20 21  2  0
 21 22  1  0
 21 23  1  0
 23 24  2  0
 17 25  1  0
 25 26  1  0
 26 27  1  0
 27 28  1  0
 28 29  1  0
 16 30  1  0
 30 31  1  0
 13  2  1  0
 29 17  1  0
 12  6  1  0
 31 13  1  0
 24 18  1  0
M  END
> <Identifier>
(4R)-4-(4-FLUOROPHENYL)-8-[1-(4-FLUOROPHENYL)CYCLOHEXYL]-2,8-DIAZASPIRO[4.5]DECAN-1-ONE

> <hERG>
1

$$$$

     RDKit          2D

 29 32  0  0  0  0  0  0  0  0999 V2000
   -2.2711    4.2430    0.0000 C   0  0  0  0  0  0  0  0  0  0  0  0
   -1.4049    3.0184    0.0000 N   0  0  0  0  0  0  0  0  0  0  0  0
   -2.0324    1.6559    0.0000 C   0  0  0  0  0  0  0  0  0  0  0  0
   -3.5260    1.5181    0.0000 O   0  0  0  0  0  0  0  0  0  0  0  0
   -1.1662    0.4313    0.0000 N   0  0  0  0  0  0  0  0  0  0  0  0
    0.3337    0.4122    0.0000 C   0  0  0  0  0  0  0  0  0  0  0  0
    0.7791   -1.0201    0.0000 C   0  0  0  0  0  0  0  0  0  0  0  0
    2.1996   -1.5018    0.0000 C   0  0  0  0  0  0  0  0  0  0  0  0
    2.4928   -2.9728    0.0000 C   0  0  0  0  0  0  0  0  0  0  0  0
    3.9134   -3.4544    0.0000 C   0  0  0  0  0  0  0  0  0  0  0  0
    4.2066   -4.9255    0.0000 F   0  0  0  0  0  0  0  0  0  0  0  0
    5.0408   -2.4650    0.0000 C   0  0  0  0  0  0  0  0  0  0  0  0
    4.7476   -0.9939    0.0000 C   0  0  0  0  0  0  0  0  0  0  0  0
    3.3270   -0.5123    0.0000 C   0  0  0  0  0  0  0  0  0  0  0  0
    3.0338    0.9588    0.0000 F   0  0  0  0  0  0  0  0  0  0  0  0
   -0.4456   -1.8863    0.0000 C   0  0  0  0  0  0  0  0  0  0  0  0
   -1.6478   -0.9893    0.0000 C   0  0  0  0  0  0  0  0  0  0  0  0
   -3.0802   -1.4347    0.0000 C   0  0  0  0  0  0  0  0  0  0  0  0
   -4.1820   -0.4169    0.0000 C   0  0  0  0  0  0  0  0  0  0  0  0
   -5.6144   -0.8623    0.0000 C   0  0  0  0  0  0  0  0  0  0  0  0
   -5.9449   -2.3254    0.0000 C   0  0  0  0  0  0  0  0  0  0  0  0
   -4.8430   -3.3432    0.0000 C   0  0  0  0  0  0  0  0  0  0  0  0
   -3.4106   -2.8978    0.0000 C   0  0  0  0  0  0  0  0  0  0  0  0
    0.0888    3.1562    0.0000 C   0  0  0  0  0  0  0  0  0  0  0  0
    0.9549    1.9316    0.0000 C   0  0  0  0  0  0  0  0  0  0  0  0
    2.4486    2.0694    0.0000 C   0  0  0  0  0  0  0  0  0  0  0  0
    3.0761    3.4318    0.0000 N   0  0  0  0  0  0  0  0  0  0  0  0
    2.2099    4.6565    0.0000 C   0  0  0  0  0  0  0  0  0  0  0  0
    0.7162    4.5186    0.0000 C   0  0  0  0  0  0  0  0  0  0  0  0
  1  2  1  0
  2  3  1  0
  3  4  2  0
  3  5  1  0
  5  6  1  0
  6  7  1  0
  7  8  1  0
  8  9  2  0
  9 10  1  0
 10 11  1  0
 10 12  2  0
 12 13  1  0
 13 14  2  0
 14 15  1  0
  7 16  2  0
 16 17  1  0
 17 18  1  1
 18 19  2  0
 19 20  1  0
 20 21  2  0
 21 22  1  0
 22 23  2  0
  2 24  1  0
 24 25  1  0
 25 26  1  0
 26 27  1  0
 27 28  1  0
 28 29  1  0
 17  5  1  0
 23 18  1  0
 29 24  1  0
 14  8  1  0
M  END
> <Identifier>
BMCL-16-2006-1777-13

> <hERG>
1

$$$$

     RDKit          2D

 27 29  0  0  0  0  0  0  0  0999 V2000
   -1.5820   -4.5289    0.0000 C   0  0  0  0  0  0  0  0  0  0  0  0
   -0.8758   -3.2055    0.0000 N   0  0  0  0  0  0  0  0  0  0  0  0
    0.6234   -3.1554    0.0000 C   0  0  0  0  0  0  0  0  0  0  0  0
    1.4164   -4.4286    0.0000 C   0  0  0  0  0  0  0  0  0  0  0  0
    2.9155   -4.3784    0.0000 C   0  0  0  0  0  0  0  0  0  0  0  0
    3.7085   -5.6517    0.0000 N   0  0  0  0  0  0  0  0  0  0  0  0
   -1.6688   -1.9323    0.0000 C   0  0  0  0  0  0  0  0  0  0  0  0
   -3.1680   -1.9824    0.0000 O   0  0  0  0  0  0  0  0  0  0  0  0
   -0.9627   -0.6089    0.0000 N   0  0  0  0  0  0  0  0  0  0  0  0
    0.5230   -0.4023    0.0000 C   0  0  0  0  0  0  0  0  0  0  0  0
    0.7857    1.0745    0.0000 C   0  0  0  0  0  0  0  0  0  0  0  0
    2.1348    1.7301    0.0000 C   0  0  0  0  0  0  0  0  0  0  0  0
    3.3772    0.8895    0.0000 C   0  0  0  0  0  0  0  0  0  0  0  0
    4.7263    1.5451    0.0000 C   0  0  0  0  0  0  0  0  0  0  0  0
    5.9686    0.7045    0.0000 F   0  0  0  0  0  0  0  0  0  0  0  0
    4.8331    3.0413    0.0000 C   0  0  0  0  0  0  0  0  0  0  0  0
    3.5908    3.8819    0.0000 C   0  0  0  0  0  0  0  0  0  0  0  0
    2.2417    3.2263    0.0000 C   0  0  0  0  0  0  0  0  0  0  0  0
    0.9993    4.0669    0.0000 F   0  0  0  0  0  0  0  0  0  0  0  0
   -0.5377    1.7807    0.0000 C   0  0  0  0  0  0  0  0  0  0  0  0
   -1.6182    0.7403    0.0000 C   0  0  0  0  0  0  0  0  0  0  0  0
   -3.0951    1.0029    0.0000 C   0  0  0  0  0  0  0  0  0  0  0  0
   -3.6060    2.4132    0.0000 C   0  0  0  0  0  0  0  0  0  0  0  0
   -5.0829    2.6758    0.0000 C   0  0  0  0  0  0  0  0  0  0  0  0
   -6.0487    1.5282    0.0000 C   0  0  0  0  0  0  0  0  0  0  0  0
   -5.5378    0.1179    0.0000 C   0  0  0  0  0  0  0  0  0  0  0  0
   -4.0609   -0.1447    0.0000 C   0  0  0  0  0  0  0  0  0  0  0  0
  1  2  1  0
  2  3  1  0
  3  4  1  0
  4  5  1  0
  5  6  1  0
  2  7  1  0
  7  8  2  0
  7  9  1  0
  9 10  1  0
 10 11  1  0
 11 12  1  0
 12 13  2  0
 13 14  1  0
 14 15  1  0
 14 16  2  0
 16 17  1  0
 17 18  2  0
 18 19  1  0
 11 20  2  0
 20 21  1  0
 21 22  1  6
 22 23  2  0
 23 24  1  0
 24 25  2  0
 25 26  1  0
 26 27  2  0
 21  9  1  0
 27 22  1  0
 18 12  1  0
M  END
> <Identifier>
BMCL-16-2007-1777-15

> <hERG>
1

$$$$

     RDKit          2D

 23 26  0  0  0  0  0  0  0  0999 V2000
   -6.0629   -1.7529    0.0000 F   0  0  0  0  0  0  0  0  0  0  0  0
   -4.5742   -1.5688    0.0000 C   0  0  0  0  0  0  0  0  0  0  0  0
   -3.9893   -0.1876    0.0000 C   0  0  0  0  0  0  0  0  0  0  0  0
   -2.5007   -0.0035    0.0000 C   0  0  0  0  0  0  0  0  0  0  0  0
   -1.5969   -1.2007    0.0000 C   0  0  0  0  0  0  0  0  0  0  0  0
   -0.1082   -1.0166    0.0000 C   0  0  0  0  0  0  0  0  0  0  0  0
    0.9157   -2.1128    0.0000 N   0  0  0  0  0  0  0  0  0  0  0  0
    2.2746   -1.4777    0.0000 C   0  0  0  0  0  0  0  0  0  0  0  0
    3.6559   -2.0626    0.0000 C   0  0  0  0  0  0  0  0  0  0  0  0
    4.8530   -1.1589    0.0000 C   0  0  0  0  0  0  0  0  0  0  0  0
    6.2343   -1.7438    0.0000 F   0  0  0  0  0  0  0  0  0  0  0  0
    4.6690    0.3298    0.0000 C   0  0  0  0  0  0  0  0  0  0  0  0
    3.2877    0.9147    0.0000 C   0  0  0  0  0  0  0  0  0  0  0  0
    2.0905    0.0110    0.0000 C   0  0  0  0  0  0  0  0  0  0  0  0
    0.6178    0.2959    0.0000 C   0  0  0  0  0  0  0  0  0  0  0  0
   -0.0172    1.6548    0.0000 C   0  0  0  0  0  0  0  0  0  0  0  0
    0.8421    2.8843    0.0000 C   0  0  0  0  0  0  0  0  0  0  0  0
    0.2070    4.2432    0.0000 C   0  0  0  0  0  0  0  0  0  0  0  0
   -1.2874    4.3727    0.0000 C   0  0  0  0  0  0  0  0  0  0  0  0
   -2.1467    3.1432    0.0000 N   0  0  0  0  0  4  0  0  0  0  0  0
   -1.5116    1.7843    0.0000 C   0  0  0  0  0  0  0  0  0  0  0  0
   -2.1818   -2.5820    0.0000 C   0  0  0  0  0  0  0  0  0  0  0  0
   -3.6705   -2.7660    0.0000 C   0  0  0  0  0  0  0  0  0  0  0  0
  1  2  1  0
  2  3  2  0
  3  4  1  0
  4  5  2  0
  5  6  1  0
  6  7  1  0
  7  8  1  0
  8  9  2  0
  9 10  1  0
 10 11  1  0
 10 12  2  0
 12 13  1  0
 13 14  2  0
 14 15  1  0
 16 15  1  6
 16 17  1  0
 17 18  1  0
 18 19  1  0
 19 20  1  0
 20 21  1  0
  5 22  1  0
 22 23  2  0
 23  2  1  0
 15  6  2  0
 21 16  1  0
 14  8  1  0
M  CHG  1  20   1
M  END
> <Identifier>
WOMBAT41

> <hERG>
1

$$$$

     RDKit          2D

 39 40  0  0  0  0  0  0  0  0999 V2000
   -2.9678   -7.8177    0.0000 C   0  0  0  0  0  0  0  0  0  0  0  0
   -3.8056   -6.5735    0.0000 C   0  0  0  0  0  0  0  0  0  0  0  0
   -5.3020   -6.6770    0.0000 O   0  0  0  0  0  0  0  0  0  0  0  0
   -3.1470   -5.2258    0.0000 O   0  0  0  0  0  0  0  0  0  0  0  0
   -3.9848   -3.9816    0.0000 C   0  0  0  0  0  0  0  0  0  0  0  0
   -3.3262   -2.6340    0.0000 O   0  0  0  0  0  0  0  0  0  0  0  0
   -4.1641   -1.3897    0.0000 C   0  0  0  0  0  0  0  0  0  0  0  0
   -5.6605   -1.4932    0.0000 O   0  0  0  0  0  0  0  0  0  0  0  0
   -3.5054   -0.0421    0.0000 C   0  0  0  0  0  0  0  0  0  0  0  0
   -4.3433    1.2021    0.0000 N   0  0  0  0  0  0  0  0  0  0  0  0
   -5.8397    1.0987    0.0000 C   0  0  0  0  0  0  0  0  0  0  0  0
   -6.6775    2.3429    0.0000 C   0  0  0  0  0  0  0  0  0  0  0  0
   -6.0189    3.6906    0.0000 O   0  0  0  0  0  0  0  0  0  0  0  0
   -8.1740    2.2394    0.0000 O   0  0  0  0  0  0  0  0  0  0  0  0
   -3.6847    2.5498    0.0000 C   0  0  0  0  0  0  0  0  0  0  0  0
   -4.5225    3.7940    0.0000 C   0  0  0  0  0  0  0  0  0  0  0  0
   -3.8639    5.1417    0.0000 C   0  0  0  0  0  0  0  0  0  0  0  0
   -2.3675    5.2452    0.0000 C   0  0  0  0  0  0  0  0  0  0  0  0
   -1.5296    4.0010    0.0000 C   0  0  0  0  0  0  0  0  0  0  0  0
   -2.1882    2.6533    0.0000 C   0  0  0  0  0  0  0  0  0  0  0  0
   -1.3504    1.4091    0.0000 O   0  0  0  0  0  0  0  0  0  0  0  0
    0.1460    1.5126    0.0000 C   0  0  0  0  0  0  0  0  0  0  0  0
    0.9838    0.2684    0.0000 C   0  0  0  0  0  0  0  0  0  0  0  0
    2.4803    0.3718    0.0000 O   0  0  0  0  0  0  0  0  0  0  0  0
    3.3181   -0.8724    0.0000 C   0  0  0  0  0  0  0  0  0  0  0  0
    2.6595   -2.2201    0.0000 C   0  0  0  0  0  0  0  0  0  0  0  0
    3.4973   -3.4643    0.0000 C   0  0  0  0  0  0  0  0  0  0  0  0
    4.9937   -3.3608    0.0000 C   0  0  0  0  0  0  0  0  0  0  0  0
    5.6523   -2.0131    0.0000 C   0  0  0  0  0  0  0  0  0  0  0  0
    4.8145   -0.7689    0.0000 C   0  0  0  0  0  0  0  0  0  0  0  0
    5.4731    0.5788    0.0000 N   0  0  0  0  0  0  0  0  0  0  0  0
    6.9695    0.6823    0.0000 C   0  0  0  0  0  0  0  0  0  0  0  0
    7.8074   -0.5619    0.0000 C   0  0  0  0  0  0  0  0  0  0  0  0
    7.1488   -1.9096    0.0000 O   0  0  0  0  0  0  0  0  0  0  0  0
    9.3038   -0.4585    0.0000 O   0  0  0  0  0  0  0  0  0  0  0  0
    4.6353    1.8230    0.0000 C   0  0  0  0  0  0  0  0  0  0  0  0
    5.2939    3.1707    0.0000 C   0  0  0  0  0  0  0  0  0  0  0  0
    4.4561    4.4149    0.0000 O   0  0  0  0  0  0  0  0  0  0  0  0
    6.7903    3.2741    0.0000 O   0  0  0  0  0  0  0  0  0  0  0  0
  1  2  1  0
  2  3  2  0
  2  4  1  0
  4  5  1  0
  5  6  1  0
  6  7  1  0
  7  8  2  0
  7  9  1  0
  9 10  1  0
 10 11  1  0
 11 12  1  0
 12 13  2  0
 12 14  1  0
 10 15  1  0
 15 16  2  0
 16 17  1  0
 17 18  2  0
 18 19  1  0
 19 20  2  0
 20 21  1  0
 21 22  1  0
 22 23  1  0
 23 24  1  0
 24 25  1  0
 25 26  2  0
 26 27  1  0
 27 28  2  0
 28 29  1  0
 29 30  2  0
 30 31  1  0
 31 32  1  0
 32 33  1  0
 33 34  2  0
 33 35  1  0
 31 36  1  0
 36 37  1  0
 37 38  2  0
 37 39  1  0
 20 15  1  0
 30 25  1  0
M  END
> <Identifier>
BAPTA-AM

> <hERG>
1

$$$$

     RDKit          2D

 20 22  0  0  0  0  0  0  0  0999 V2000
   -5.9628   -2.5182    0.0000 C   0  0  0  0  0  0  0  0  0  0  0  0
   -4.8630   -1.4982    0.0000 N   0  0  0  0  0  4  0  0  0  0  0  0
   -3.4297   -1.9407    0.0000 C   0  0  0  0  0  0  0  0  0  0  0  0
   -2.3299   -0.9207    0.0000 C   0  0  0  0  0  0  0  0  0  0  0  0
   -0.8967   -1.3631    0.0000 C   0  0  0  0  0  0  0  0  0  0  0  0
    0.2031   -0.3431    0.0000 N   0  0  0  0  0  0  0  0  0  0  0  0
    1.5993   -0.8914    0.0000 C   0  0  0  0  0  0  0  0  0  0  0  0
    1.5990   -2.3914    0.0000 C   0  0  0  0  0  0  0  0  0  0  0  0
    2.8979   -3.1417    0.0000 C   0  0  0  0  0  0  0  0  0  0  0  0
    4.1971   -2.3920    0.0000 C   0  0  0  0  0  0  0  0  0  0  0  0
    4.1974   -0.8920    0.0000 C   0  0  0  0  0  0  0  0  0  0  0  0
    2.8985   -0.1417    0.0000 C   0  0  0  0  0  0  0  0  0  0  0  0
    3.1224    1.3415    0.0000 C   0  0  0  0  0  0  0  0  0  0  0  0
    2.1024    2.4413    0.0000 C   0  0  0  0  0  0  0  0  0  0  0  0
    0.6066    2.3295    0.0000 C   0  0  0  0  0  0  0  0  0  0  0  0
   -0.0439    3.6811    0.0000 C   0  0  0  0  0  0  0  0  0  0  0  0
   -1.5397    3.7935    0.0000 C   0  0  0  0  0  0  0  0  0  0  0  0
   -2.3850    2.5544    0.0000 C   0  0  0  0  0  0  0  0  0  0  0  0
   -1.7344    1.2028    0.0000 C   0  0  0  0  0  0  0  0  0  0  0  0
   -0.2387    1.0903    0.0000 C   0  0  0  0  0  0  0  0  0  0  0  0
  1  2  1  0
  2  3  1  0
  3  4  1  0
  4  5  1  0
  5  6  1  0
  6  7  1  0
  7  8  2  0
  8  9  1  0
  9 10  2  0
 10 11  1  0
 11 12  2  0
 12 13  1  0
 13 14  1  0
 14 15  1  0
 15 16  2  0
 16 17  1  0
 17 18  2  0
 18 19  1  0
 19 20  2  0
 20  6  1  0
 12  7  1  0
 20 15  1  0
M  CHG  1   2   1
M  END
> <Identifier>
DESIPRAMINE

> <hERG>
1

$$$$

     RDKit          2D

 32 35  0  0  0  0  0  0  0  0999 V2000
  -12.3048   -2.2309    0.0000 C   0  0  0  0  0  0  0  0  0  0  0  0
  -10.9874   -1.5137    0.0000 N   0  0  0  0  0  4  0  0  0  0  0  0
  -10.9498   -0.0142    0.0000 C   0  0  0  0  0  0  0  0  0  0  0  0
   -9.6323    0.7030    0.0000 C   0  0  0  0  0  0  0  0  0  0  0  0
   -8.3525   -0.0793    0.0000 N   0  0  0  0  0  4  0  0  0  0  0  0
   -7.0351    0.6379    0.0000 C   0  0  0  0  0  0  0  0  0  0  0  0
   -5.7552   -0.1444    0.0000 C   0  0  0  0  0  0  0  0  0  0  0  0
   -4.4378    0.5728    0.0000 C   0  0  0  0  0  0  0  0  0  0  0  0
   -3.1580   -0.2095    0.0000 C   0  0  0  0  0  0  0  0  0  0  0  0
   -1.8406    0.5077    0.0000 N   0  0  0  0  0  0  0  0  0  0  0  0
   -1.6464    1.9951    0.0000 C   0  0  0  0  0  0  0  0  0  0  0  0
   -2.7356    3.0264    0.0000 O   0  0  0  0  0  0  0  0  0  0  0  0
   -0.1719    2.2701    0.0000 C   0  0  0  0  0  0  0  0  0  0  0  0
    0.5454    0.9526    0.0000 N   0  0  0  0  0  0  0  0  0  0  0  0
    2.0327    0.7585    0.0000 N   0  0  0  0  0  0  0  0  0  0  0  0
    2.9446    1.9495    0.0000 C   0  0  0  0  0  0  0  0  0  0  0  0
    4.4319    1.7554    0.0000 C   0  0  0  0  0  0  0  0  0  0  0  0
    5.4633    2.8446    0.0000 C   0  0  0  0  0  0  0  0  0  0  0  0
    6.8179    2.2004    0.0000 C   0  0  0  0  0  0  0  0  0  0  0  0
    6.6237    0.7130    0.0000 C   0  0  0  0  0  0  0  0  0  0  0  0
    7.7129   -0.3183    0.0000 C   0  0  0  0  0  0  0  0  0  0  0  0
    7.3644   -1.7773    0.0000 C   0  0  0  0  0  0  0  0  0  0  0  0
    8.4536   -2.8086    0.0000 C   0  0  0  0  0  0  0  0  0  0  0  0
    9.8914   -2.3810    0.0000 C   0  0  0  0  0  0  0  0  0  0  0  0
   10.9806   -3.4123    0.0000 Cl  0  0  0  0  0  0  0  0  0  0  0  0
   10.2399   -0.9220    0.0000 C   0  0  0  0  0  0  0  0  0  0  0  0
    9.1507    0.1093    0.0000 C   0  0  0  0  0  0  0  0  0  0  0  0
    5.1491    0.4380    0.0000 O   0  0  0  0  0  0  0  0  0  0  0  0
   -0.4860   -0.1366    0.0000 C   0  0  0  0  0  0  0  0  0  0  0  0
   -0.2110   -1.6112    0.0000 O   0  0  0  0  0  0  0  0  0  0  0  0
   -8.3901   -1.5788    0.0000 C   0  0  0  0  0  0  0  0  0  0  0  0
   -9.7075   -2.2960    0.0000 C   0  0  0  0  0  0  0  0  0  0  0  0
  1  2  1  0
  2  3  1  0
  3  4  1  0
  4  5  1  0
  5  6  1  0
  6  7  1  0
  7  8  1  0
  8  9  1  0
  9 10  1  0
 10 11  1  0
 11 12  2  0
 11 13  1  0
 13 14  1  0
 14 15  1  0
 15 16  2  0
 16 17  1  0
 17 18  2  0
 18 19  1  0
 19 20  2  0
 20 21  1  0
 21 22  2  0
 22 23  1  0
 23 24  2  0
 24 25  1  0
 24 26  1  0
 26 27  2  0
 20 28  1  0
 14 29  1  0
 29 30  2  0
  5 31  1  0
 31 32  1  0
 32  2  1  0
 29 10  1  0
 28 17  1  0
 27 21  1  0
M  CHG  2   2   1   5   1
M  END
> <Identifier>
AZIMILIDE

> <hERG>
1

$$$$

     RDKit          2D

 29 33  0  0  0  0  0  0  0  0999 V2000
    0.0804    3.6091    0.0000 O   0  0  0  0  0  0  0  0  0  0  0  0
   -1.2628    2.9413    0.0000 C   0  0  0  0  0  0  0  0  0  0  0  0
   -2.5925    3.6354    0.0000 N   0  0  0  0  0  0  0  0  0  0  0  0
   -3.6635    2.5852    0.0000 C   0  0  0  0  0  0  0  0  0  0  0  0
   -2.9957    1.2421    0.0000 C   0  0  0  0  0  0  0  0  0  0  0  0
   -3.6899   -0.0877    0.0000 C   0  0  0  0  0  0  0  0  0  0  0  0
   -5.1885   -0.1514    0.0000 C   0  0  0  0  0  0  0  0  0  0  0  0
   -5.8826   -1.4812    0.0000 C   0  0  0  0  0  0  0  0  0  0  0  0
   -5.0781   -2.7472    0.0000 C   0  0  0  0  0  0  0  0  0  0  0  0
   -3.5794   -2.6834    0.0000 C   0  0  0  0  0  0  0  0  0  0  0  0
   -2.8853   -1.3537    0.0000 C   0  0  0  0  0  0  0  0  0  0  0  0
   -1.5120    1.4621    0.0000 C   0  0  0  0  0  0  0  0  0  0  0  0
   -1.9145    0.0171    0.0000 C   0  0  0  0  0  0  0  0  0  0  0  0
   -0.8643   -1.0539    0.0000 C   0  0  0  0  0  0  0  0  0  0  0  0
    0.5884   -0.6800    0.0000 N   0  0  0  0  0  0  0  0  0  0  0  0
    1.6385   -1.7510    0.0000 C   0  0  0  0  0  0  0  0  0  0  0  0
    1.2361   -3.1960    0.0000 C   0  0  0  0  0  0  0  0  0  0  0  0
    2.2862   -4.2671    0.0000 C   0  0  0  0  0  0  0  0  0  0  0  0
    3.7389   -3.8931    0.0000 C   0  0  0  0  0  0  0  0  0  0  0  0
    4.1413   -2.4481    0.0000 C   0  0  0  0  0  0  0  0  0  0  0  0
    3.0912   -1.3771    0.0000 C   0  0  0  0  0  0  0  0  0  0  0  0
    3.4936    0.0679    0.0000 C   0  0  0  0  0  0  0  0  0  0  0  0
    4.9463    0.4419    0.0000 C   0  0  0  0  0  0  0  0  0  0  0  0
    5.3487    1.8869    0.0000 C   0  0  0  0  0  0  0  0  0  0  0  0
    4.2986    2.9579    0.0000 C   0  0  0  0  0  0  0  0  0  0  0  0
    2.8459    2.5840    0.0000 C   0  0  0  0  0  0  0  0  0  0  0  0
    2.4435    1.1390    0.0000 C   0  0  0  0  0  0  0  0  0  0  0  0
    0.9908    0.7650    0.0000 C   0  0  0  0  0  0  0  0  0  0  0  0
   -0.0593    1.8361    0.0000 C   0  0  0  0  0  0  0  0  0  0  0  0
  1  2  2  0
  2  3  1  0
  3  4  1  0
  4  5  1  0
  5  6  1  6
  6  7  2  0
  7  8  1  0
  8  9  2  0
  9 10  1  0
 10 11  2  0
  5 12  1  0
 12 13  1  0
 13 14  1  0
 14 15  1  0
 16 15  1  6
 16 17  1  0
 17 18  1  0
 18 19  1  0
 19 20  1  0
 20 21  1  0
 21 22  1  1
 22 23  2  0
 23 24  1  0
 24 25  2  0
 25 26  1  0
 26 27  2  0
 15 28  1  0
 28 29  1  0
 12  2  1  0
 21 16  1  0
 27 22  1  0
 11  6  1  0
 29 12  1  0
M  END
> <Identifier>
BMCL-16-2006-4313-27

> <hERG>
1

$$$$

     RDKit          2D

 32 36  0  0  0  0  0  0  0  0999 V2000
    1.5666   -2.8209    0.0000 O   0  0  0  0  0  0  0  0  0  0  0  0
    1.9987   -1.3845    0.0000 C   0  0  0  0  0  0  0  0  0  0  0  0
    0.9708   -0.2921    0.0000 N   0  0  0  0  0  0  0  0  0  0  0  0
   -0.4892   -0.6360    0.0000 C   0  0  0  0  0  0  0  0  0  0  0  0
   -1.5171    0.4564    0.0000 C   0  0  0  0  0  0  0  0  0  0  0  0
   -2.9772    0.1124    0.0000 C   0  0  0  0  0  0  0  0  0  0  0  0
   -3.4093   -1.3240    0.0000 N   0  0  0  0  0  0  0  0  0  0  0  0
   -4.8693   -1.6679    0.0000 C   0  0  0  0  0  0  0  0  0  0  0  0
   -5.8972   -0.5755    0.0000 C   0  0  0  0  0  0  0  0  0  0  0  0
   -5.4651    0.8609    0.0000 C   0  0  0  0  0  0  0  0  0  0  0  0
   -6.4930    1.9533    0.0000 C   0  0  0  0  0  0  0  0  0  0  0  0
   -7.9530    1.6094    0.0000 C   0  0  0  0  0  0  0  0  0  0  0  0
   -8.3851    0.1730    0.0000 C   0  0  0  0  0  0  0  0  0  0  0  0
   -7.3572   -0.9195    0.0000 C   0  0  0  0  0  0  0  0  0  0  0  0
   -9.8848    0.1401    0.0000 O   0  0  0  0  0  0  0  0  0  0  0  0
  -10.3795    1.5561    0.0000 C   0  0  0  0  0  0  0  0  0  0  0  0
   -9.1856    2.4642    0.0000 O   0  0  0  0  0  0  0  0  0  0  0  0
   -2.3814   -2.4164    0.0000 C   0  0  0  0  0  0  0  0  0  0  0  0
   -0.9213   -2.0724    0.0000 C   0  0  0  0  0  0  0  0  0  0  0  0
    3.4587   -1.0405    0.0000 C   0  0  0  0  0  0  0  0  0  0  0  0
    4.4866   -2.1330    0.0000 C   0  0  0  0  0  0  0  0  0  0  0  0
    5.9467   -1.7890    0.0000 C   0  0  0  0  0  0  0  0  0  0  0  0
    6.9746   -2.8814    0.0000 O   0  0  0  0  0  0  0  0  0  0  0  0
    6.3788   -0.3526    0.0000 C   0  0  0  0  0  0  0  0  0  0  0  0
    7.8388   -0.0086    0.0000 C   0  0  0  0  0  0  0  0  0  0  0  0
    8.2710    1.4278    0.0000 C   0  0  0  0  0  0  0  0  0  0  0  0
    9.7310    1.7718    0.0000 Cl  0  0  0  0  0  0  0  0  0  0  0  0
    7.2430    2.5202    0.0000 C   0  0  0  0  0  0  0  0  0  0  0  0
    7.6752    3.9566    0.0000 Cl  0  0  0  0  0  0  0  0  0  0  0  0
    5.7830    2.1763    0.0000 C   0  0  0  0  0  0  0  0  0  0  0  0
    5.3509    0.7399    0.0000 C   0  0  0  0  0  0  0  0  0  0  0  0
    3.8909    0.3959    0.0000 O   0  0  0  0  0  0  0  0  0  0  0  0
  1  2  2  0
  2  3  1  0
  3  4  1  0
  4  5  1  0
  5  6  1  0
  6  7  1  0
  7  8  1  0
  8  9  1  0
  9 10  2  0
 10 11  1  0
 11 12  2  0
 12 13  1  0
 13 14  2  0
 13 15  1  0
 15 16  1  0
 16 17  1  0
  7 18  1  0
 18 19  1  0
  2 20  1  0
 20 21  2  0
 21 22  1  0
 22 23  2  0
 22 24  1  0
 24 25  2  0
 25 26  1  0
 26 27  1  0
 26 28  2  0
 28 29  1  0
 28 30  1  0
 30 31  2  0
 31 32  1  0
 19  4  1  0
 32 20  1  0
 14  9  1  0
 31 24  1  0
 17 12  1  0
M  END
> <Identifier>
JMC20066569-1

> <hERG>
1

$$$$

     RDKit          2D

 23 26  0  0  0  0  0  0  0  0999 V2000
    1.8045    2.6791    0.0000 F   0  0  0  0  0  0  0  0  0  0  0  0
    0.3049    2.7132    0.0000 C   0  0  0  0  0  0  0  0  0  0  0  0
   -0.4154    4.0290    0.0000 C   0  0  0  0  0  0  0  0  0  0  0  0
   -1.9150    4.0631    0.0000 C   0  0  0  0  0  0  0  0  0  0  0  0
   -2.6944    2.7814    0.0000 N   0  0  0  0  0  4  0  0  0  0  0  0
   -1.9741    1.4657    0.0000 C   0  0  0  0  0  0  0  0  0  0  0  0
   -0.4745    1.4316    0.0000 C   0  0  0  0  0  0  0  0  0  0  0  0
    0.2458    0.1158    0.0000 C   0  0  0  0  0  0  0  0  0  0  0  0
   -0.3953   -1.2403    0.0000 C   0  0  0  0  0  0  0  0  0  0  0  0
   -1.8693   -1.5187    0.0000 C   0  0  0  0  0  0  0  0  0  0  0  0
   -2.3651   -2.9344    0.0000 C   0  0  0  0  0  0  0  0  0  0  0  0
   -3.8390   -3.2128    0.0000 C   0  0  0  0  0  0  0  0  0  0  0  0
   -4.8171   -2.0756    0.0000 C   0  0  0  0  0  0  0  0  0  0  0  0
   -4.3213   -0.6599    0.0000 C   0  0  0  0  0  0  0  0  0  0  0  0
   -2.8473   -0.3815    0.0000 C   0  0  0  0  0  0  0  0  0  0  0  0
    0.6963   -2.2691    0.0000 N   0  0  0  0  0  0  0  0  0  0  0  0
    2.0120   -1.5488    0.0000 C   0  0  0  0  0  0  0  0  0  0  0  0
    3.4277   -2.0446    0.0000 C   0  0  0  0  0  0  0  0  0  0  0  0
    4.5650   -1.0665    0.0000 C   0  0  0  0  0  0  0  0  0  0  0  0
    5.9806   -1.5624    0.0000 Cl  0  0  0  0  0  0  0  0  0  0  0  0
    4.2865    0.4074    0.0000 C   0  0  0  0  0  0  0  0  0  0  0  0
    2.8709    0.9032    0.0000 C   0  0  0  0  0  0  0  0  0  0  0  0
    1.7336   -0.0749    0.0000 C   0  0  0  0  0  0  0  0  0  0  0  0
  2  1  1  1
  2  3  1  0
  3  4  1  0
  4  5  1  0
  5  6  1  0
  6  7  1  0
  7  8  1  6
  8  9  2  0
  9 10  1  0
 10 11  2  0
 11 12  1  0
 12 13  2  0
 13 14  1  0
 14 15  2  0
  9 16  1  0
 16 17  1  0
 17 18  2  0
 18 19  1  0
 19 20  1  0
 19 21  2  0
 21 22  1  0
 22 23  2  0
  7  2  1  0
 23  8  1  0
 15 10  1  0
 23 17  1  0
M  CHG  1   5   1
M  END
> <Identifier>
WOMBAT63

> <hERG>
1

$$$$

     RDKit          2D

 36 39  0  0  0  0  0  0  0  0999 V2000
   -1.4413    4.8100    0.0000 C   0  0  0  0  0  0  0  0  0  0  0  0
   -0.9569    3.3903    0.0000 O   0  0  0  0  0  0  0  0  0  0  0  0
    0.5148    3.1001    0.0000 C   0  0  0  0  0  0  0  0  0  0  0  0
    0.9993    1.6805    0.0000 C   0  0  0  0  0  0  0  0  0  0  0  0
    0.0121    0.5511    0.0000 O   0  0  0  0  0  0  0  0  0  0  0  0
    2.4709    1.3903    0.0000 O   0  0  0  0  0  0  0  0  0  0  0  0
    2.9554   -0.0293    0.0000 C   0  0  0  0  0  0  0  0  0  0  0  0
    1.4732   -0.2599    0.0000 C   0  0  0  0  0  0  0  0  0  0  0  0
    0.9319   -1.6588    0.0000 C   0  0  0  0  0  0  0  0  0  0  0  0
   -0.5503   -1.8894    0.0000 N   0  0  0  0  0  4  0  0  0  0  0  0
   -1.0917   -3.2883    0.0000 C   0  0  0  0  0  0  0  0  0  0  0  0
   -1.4911   -0.7211    0.0000 C   0  0  0  0  0  0  0  0  0  0  0  0
   -2.9733   -0.9518    0.0000 C   0  0  0  0  0  0  0  0  0  0  0  0
   -3.9141    0.2165    0.0000 C   0  0  0  0  0  0  0  0  0  0  0  0
   -5.3962   -0.0141    0.0000 C   0  0  0  0  0  0  0  0  0  0  0  0
   -6.0808   -1.3487    0.0000 N   0  0  0  0  0  0  0  0  0  0  0  0
   -7.5617   -1.1100    0.0000 C   0  0  0  0  0  0  0  0  0  0  0  0
   -8.7300   -2.0508    0.0000 C   0  0  0  0  0  0  0  0  0  0  0  0
  -10.1289   -1.5095    0.0000 C   0  0  0  0  0  0  0  0  0  0  0  0
  -10.3595   -0.0273    0.0000 C   0  0  0  0  0  0  0  0  0  0  0  0
   -9.1912    0.9135    0.0000 C   0  0  0  0  0  0  0  0  0  0  0  0
   -7.7923    0.3721    0.0000 C   0  0  0  0  0  0  0  0  0  0  0  0
   -6.4540    1.0495    0.0000 N   0  0  0  0  0  0  0  0  0  0  0  0
    2.9251   -1.5290    0.0000 C   0  0  0  0  0  0  0  0  0  0  0  0
    4.2088   -2.3051    0.0000 C   0  0  0  0  0  0  0  0  0  0  0  0
    5.5227   -1.5814    0.0000 C   0  0  0  0  0  0  0  0  0  0  0  0
    6.8063   -2.3575    0.0000 C   0  0  0  0  0  0  0  0  0  0  0  0
    8.1202   -1.6339    0.0000 C   0  0  0  0  0  0  0  0  0  0  0  0
    9.4039   -2.4099    0.0000 F   0  0  0  0  0  0  0  0  0  0  0  0
    8.1505   -0.1342    0.0000 C   0  0  0  0  0  0  0  0  0  0  0  0
    6.8669    0.6419    0.0000 C   0  0  0  0  0  0  0  0  0  0  0  0
    5.5530   -0.0817    0.0000 C   0  0  0  0  0  0  0  0  0  0  0  0
    4.2693    0.6943    0.0000 C   0  0  0  0  0  0  0  0  0  0  0  0
    4.2996    2.1940    0.0000 C   0  0  0  0  0  0  0  0  0  0  0  0
    3.0159    2.9701    0.0000 C   0  0  0  0  0  0  0  0  0  0  0  0
    5.6135    2.9176    0.0000 C   0  0  0  0  0  0  0  0  0  0  0  0
  1  2  1  0
  2  3  1  0
  3  4  1  0
  4  5  2  0
  4  6  1  0
  6  7  1  0
  7  8  1  1
  8  9  1  0
  9 10  1  0
 10 11  1  0
 10 12  1  0
 12 13  1  0
 13 14  1  0
 14 15  1  0
 15 16  2  0
 16 17  1  0
 17 18  2  0
 18 19  1  0
 19 20  2  0
 20 21  1  0
 21 22  2  0
 22 23  1  0
  7 24  1  0
 24 25  1  0
 25 26  1  0
 26 27  2  0
 27 28  1  0
 28 29  1  0
 28 30  2  0
 30 31  1  0
 31 32  2  0
 32 33  1  0
 33 34  1  1
 34 35  1  0
 34 36  1  0
 33  7  1  0
 23 15  1  0
 32 26  1  0
 22 17  1  0
M  CHG  1  10   1
M  END
> <Identifier>
MIBEFRADIL

> <hERG>
1

$$$$

     RDKit          2D

 29 30  0  0  0  0  0  0  0  0999 V2000
    6.6494   -2.7284    0.0000 C   0  0  0  0  0  0  0  0  0  0  0  0
    6.5698   -1.2305    0.0000 N   0  0  0  0  0  0  0  0  0  0  0  0
    5.2328   -0.5506    0.0000 C   0  0  0  0  0  0  0  0  0  0  0  0
    3.9754   -1.3685    0.0000 N   0  0  0  0  0  0  0  0  0  0  0  0
    2.6383   -0.6885    0.0000 C   0  0  0  0  0  0  0  0  0  0  0  0
    1.3810   -1.5064    0.0000 C   0  0  0  0  0  0  0  0  0  0  0  0
    0.0439   -0.8264    0.0000 N   0  0  0  0  0  0  0  0  0  0  0  0
   -0.0357    0.6715    0.0000 C   0  0  0  0  0  0  0  0  0  0  0  0
   -1.3727    1.3514    0.0000 C   0  0  0  0  0  0  0  0  0  0  0  0
   -1.4524    2.8493    0.0000 O   0  0  0  0  0  0  0  0  0  0  0  0
   -1.2135   -1.6443    0.0000 C   0  0  0  0  0  0  0  0  0  0  0  0
   -2.5505   -0.9643    0.0000 C   0  0  0  0  0  0  0  0  0  0  0  0
   -3.8079   -1.7823    0.0000 C   0  0  0  0  0  0  0  0  0  0  0  0
   -5.1449   -1.1023    0.0000 C   0  0  0  0  0  0  0  0  0  0  0  0
   -5.2245    0.3956    0.0000 C   0  0  0  0  0  0  0  0  0  0  0  0
   -6.5615    1.0756    0.0000 C   0  0  0  0  0  0  0  0  0  0  0  0
   -7.8189    0.2577    0.0000 C   0  0  0  0  0  0  0  0  0  0  0  0
   -9.1560    0.9377    0.0000 N   0  0  0  0  0  4  0  0  0  0  0  0
  -10.4133    0.1198    0.0000 O   0  0  0  0  0  0  0  0  0  0  0  0
   -9.2356    2.4355    0.0000 O   0  0  0  0  0  1  0  0  0  0  0  0
   -7.7393   -1.2402    0.0000 C   0  0  0  0  0  0  0  0  0  0  0  0
   -6.4023   -1.9202    0.0000 C   0  0  0  0  0  0  0  0  0  0  0  0
    5.1531    0.9473    0.0000 C   0  0  0  0  0  0  0  0  0  0  0  0
    6.4105    1.7652    0.0000 C   0  0  0  0  0  0  0  0  0  0  0  0
    6.3309    3.2631    0.0000 O   0  0  0  0  0  0  0  0  0  0  0  0
    7.7475    1.0852    0.0000 N   0  0  0  0  0  0  0  0  0  0  0  0
    9.0049    1.9032    0.0000 C   0  0  0  0  0  0  0  0  0  0  0  0
    7.8272   -0.4126    0.0000 C   0  0  0  0  0  0  0  0  0  0  0  0
    9.1642   -1.0926    0.0000 O   0  0  0  0  0  0  0  0  0  0  0  0
  1  2  1  0
  2  3  1  0
  3  4  1  0
  4  5  1  0
  5  6  1  0
  6  7  1  0
  7  8  1  0
  8  9  1  0
  9 10  1  0
  7 11  1  0
 11 12  1  0
 12 13  1  0
 13 14  1  0
 14 15  2  0
 15 16  1  0
 16 17  2  0
 17 18  1  0
 18 19  2  0
 18 20  1  0
 17 21  1  0
 21 22  2  0
  3 23  2  0
 23 24  1  0
 24 25  2  0
 24 26  1  0
 26 27  1  0
 26 28  1  0
 28 29  2  0
 28  2  1  0
 22 14  1  0
M  CHG  2  18   1  20  -1
M  END
> <Identifier>
NIFEKALANT

> <hERG>
1

$$$$

     RDKit          2D

 21 23  0  0  0  0  0  0  0  0999 V2000
   -5.5035   -2.9159    0.0000 C   0  0  0  0  0  0  0  0  0  0  0  0
   -4.4365   -1.8616    0.0000 N   0  0  0  0  0  4  0  0  0  0  0  0
   -4.8160   -0.4105    0.0000 C   0  0  0  0  0  0  0  0  0  0  0  0
   -2.9899   -2.2586    0.0000 C   0  0  0  0  0  0  0  0  0  0  0  0
   -1.9229   -1.2043    0.0000 C   0  0  0  0  0  0  0  0  0  0  0  0
   -0.4764   -1.6012    0.0000 C   0  0  0  0  0  0  0  0  0  0  0  0
    0.5906   -0.5469    0.0000 N   0  0  0  0  0  0  0  0  0  0  0  0
    2.0371   -0.9439    0.0000 C   0  0  0  0  0  0  0  0  0  0  0  0
    2.4167   -2.3950    0.0000 C   0  0  0  0  0  0  0  0  0  0  0  0
    3.8632   -2.7920    0.0000 C   0  0  0  0  0  0  0  0  0  0  0  0
    4.9302   -1.7377    0.0000 C   0  0  0  0  0  0  0  0  0  0  0  0
    4.5507   -0.2865    0.0000 C   0  0  0  0  0  0  0  0  0  0  0  0
    3.1042    0.1104    0.0000 C   0  0  0  0  0  0  0  0  0  0  0  0
    2.7246    1.5616    0.0000 S   0  0  0  0  0  0  0  0  0  0  0  0
    1.2781    1.9585    0.0000 C   0  0  0  0  0  0  0  0  0  0  0  0
    0.8986    3.4097    0.0000 C   0  0  0  0  0  0  0  0  0  0  0  0
   -0.5480    3.8066    0.0000 C   0  0  0  0  0  0  0  0  0  0  0  0
   -1.6150    2.7524    0.0000 C   0  0  0  0  0  0  0  0  0  0  0  0
   -3.0615    3.1493    0.0000 Cl  0  0  0  0  0  0  0  0  0  0  0  0
   -1.2354    1.3012    0.0000 C   0  0  0  0  0  0  0  0  0  0  0  0
    0.2111    0.9043    0.0000 C   0  0  0  0  0  0  0  0  0  0  0  0
  1  2  1  0
  2  3  1  0
  2  4  1  0
  4  5  1  0
  5  6  1  0
  6  7  1  0
  7  8  1  0
  8  9  2  0
  9 10  1  0
 10 11  2  0
 11 12  1  0
 12 13  2  0
 13 14  1  0
 14 15  1  0
 15 16  2  0
 16 17  1  0
 17 18  2  0
 18 19  1  0
 18 20  1  0
 20 21  2  0
 21  7  1  0
 13  8  1  0
 21 15  1  0
M  CHG  1   2   1
M  END
> <Identifier>
CHLORPROMAZINE

> <hERG>
1

$$$$

     RDKit          2D

 22 24  0  0  0  0  0  0  0  0999 V2000
    4.1106    3.8440    0.0000 C   0  0  0  0  0  0  0  0  0  0  0  0
    2.8262    3.0693    0.0000 C   0  0  0  0  0  0  0  0  0  0  0  0
    2.8548    1.5696    0.0000 C   0  0  0  0  0  0  0  0  0  0  0  0
    4.1679    0.8446    0.0000 C   0  0  0  0  0  0  0  0  0  0  0  0
    5.4524    1.6192    0.0000 C   0  0  0  0  0  0  0  0  0  0  0  0
    1.5703    0.7950    0.0000 C   0  0  0  0  0  0  0  0  0  0  0  0
    0.1886    1.3788    0.0000 C   0  0  0  0  0  0  0  0  0  0  0  0
   -0.7936    0.2451    0.0000 N   0  0  0  0  0  0  0  0  0  0  0  0
   -2.2881    0.3734    0.0000 C   0  0  0  0  0  0  0  0  0  0  0  0
   -2.9243    1.7318    0.0000 C   0  0  0  0  0  0  0  0  0  0  0  0
   -4.4188    1.8601    0.0000 C   0  0  0  0  0  0  0  0  0  0  0  0
   -5.2772    0.6299    0.0000 C   0  0  0  0  0  0  0  0  0  0  0  0
   -6.7717    0.7582    0.0000 F   0  0  0  0  0  0  0  0  0  0  0  0
   -4.6410   -0.7285    0.0000 C   0  0  0  0  0  0  0  0  0  0  0  0
   -3.1465   -0.8568    0.0000 C   0  0  0  0  0  0  0  0  0  0  0  0
   -0.0190   -1.0394    0.0000 C   0  0  0  0  0  0  0  0  0  0  0  0
   -0.4552   -2.4746    0.0000 C   0  0  0  0  0  0  0  0  0  0  0  0
    0.5696   -3.5699    0.0000 C   0  0  0  0  0  0  0  0  0  0  0  0
    2.0306   -3.2301    0.0000 C   0  0  0  0  0  0  0  0  0  0  0  0
    3.0554   -4.3254    0.0000 Cl  0  0  0  0  0  0  0  0  0  0  0  0
    2.4668   -1.7949    0.0000 C   0  0  0  0  0  0  0  0  0  0  0  0
    1.4420   -0.6996    0.0000 C   0  0  0  0  0  0  0  0  0  0  0  0
  1  2  1  0
  2  3  1  0
  3  4  1  0
  4  5  1  0
  3  6  1  0
  6  7  2  0
  7  8  1  0
  8  9  1  0
  9 10  2  0
 10 11  1  0
 11 12  2  0
 12 13  1  0
 12 14  1  0
 14 15  2  0
  8 16  1  0
 16 17  2  0
 17 18  1  0
 18 19  2  0
 19 20  1  0
 19 21  1  0
 21 22  2  0
 22  6  1  0
 15  9  1  0
 22 16  1  0
M  END
> <Identifier>
BMCL20031829_17

> <hERG>
1

$$$$

     RDKit          2D

 35 38  0  0  0  0  0  0  0  0999 V2000
    1.1294    3.1710    0.0000 C   0  0  0  0  0  0  0  0  0  0  0  0
   -0.3541    2.9493    0.0000 O   0  0  0  0  0  0  0  0  0  0  0  0
   -0.9039    1.5536    0.0000 C   0  0  0  0  0  0  0  0  0  0  0  0
   -2.3874    1.3319    0.0000 C   0  0  0  0  0  0  0  0  0  0  0  0
   -2.9371   -0.0637    0.0000 C   0  0  0  0  0  0  0  0  0  0  0  0
   -4.4207   -0.2855    0.0000 C   0  0  0  0  0  0  0  0  0  0  0  0
   -5.3544    0.8884    0.0000 N   0  0  0  0  0  0  0  0  0  0  0  0
   -6.8380    0.6667    0.0000 C   0  0  0  0  0  0  0  0  0  0  0  0
   -7.7718    1.8406    0.0000 C   0  0  0  0  0  0  0  0  0  0  0  0
   -9.2553    1.6189    0.0000 C   0  0  0  0  0  0  0  0  0  0  0  0
   -9.8050    0.2232    0.0000 C   0  0  0  0  0  0  0  0  0  0  0  0
  -11.2885    0.0015    0.0000 Br  0  0  0  0  0  0  0  0  0  0  0  0
   -8.8712   -0.9507    0.0000 C   0  0  0  0  0  0  0  0  0  0  0  0
   -7.3877   -0.7289    0.0000 C   0  0  0  0  0  0  0  0  0  0  0  0
   -6.4539   -1.9028    0.0000 F   0  0  0  0  0  0  0  0  0  0  0  0
   -4.9704   -1.6811    0.0000 N   0  0  0  0  0  0  0  0  0  0  0  0
   -4.0366   -2.8550    0.0000 C   0  0  0  0  0  0  0  0  0  0  0  0
   -2.5531   -2.6333    0.0000 N   0  0  0  0  0  0  0  0  0  0  0  0
   -2.0033   -1.2376    0.0000 C   0  0  0  0  0  0  0  0  0  0  0  0
   -0.5198   -1.0159    0.0000 C   0  0  0  0  0  0  0  0  0  0  0  0
    0.0299    0.3797    0.0000 C   0  0  0  0  0  0  0  0  0  0  0  0
    1.5134    0.6015    0.0000 O   0  0  0  0  0  0  0  0  0  0  0  0
    2.4472   -0.5724    0.0000 C   0  0  0  0  0  0  0  0  0  0  0  0
    3.9307   -0.3507    0.0000 C   0  0  0  0  0  0  0  0  0  0  0  0
    4.8645   -1.5246    0.0000 C   0  0  0  0  0  0  0  0  0  0  0  0
    6.3480   -1.3029    0.0000 C   0  0  0  0  0  0  0  0  0  0  0  0
    6.8978    0.0928    0.0000 N   0  0  0  0  0  0  0  0  0  0  0  0
    8.3813    0.3145    0.0000 C   0  0  0  0  0  0  0  0  0  0  0  0
    8.9310    1.7102    0.0000 O   0  0  0  0  0  0  0  0  0  0  0  0
    9.3151   -0.8594    0.0000 C   0  0  0  0  0  0  0  0  0  0  0  0
   10.7986   -0.6376    0.0000 N   0  0  0  0  0  0  0  0  0  0  0  0
   11.7324   -1.8115    0.0000 C   0  0  0  0  0  0  0  0  0  0  0  0
   11.3483    0.7580    0.0000 C   0  0  0  0  0  0  0  0  0  0  0  0
    5.9640    1.2667    0.0000 C   0  0  0  0  0  0  0  0  0  0  0  0
    4.4805    1.0449    0.0000 C   0  0  0  0  0  0  0  0  0  0  0  0
  1  2  1  0
  2  3  1  0
  3  4  2  0
  4  5  1  0
  5  6  2  0
  6  7  1  0
  7  8  1  0
  8  9  2  0
  9 10  1  0
 10 11  2  0
 11 12  1  0
 11 13  1  0
 13 14  2  0
 14 15  1  0
  6 16  1  0
 16 17  2  0
 17 18  1  0
 18 19  2  0
 19 20  1  0
 20 21  2  0
 21 22  1  0
 22 23  1  0
 23 24  1  0
 24 25  1  0
 25 26  1  0
 26 27  1  0
 27 28  1  0
 28 29  2  0
 28 30  1  0
 30 31  1  0
 31 32  1  0
 31 33  1  0
 27 34  1  0
 34 35  1  0
 21  3  1  0
 35 24  1  0
 19  5  1  0
 14  8  1  0
M  END
> <Identifier>
1-{4-[({4-[(4-BROMO-2-FLUOROPHENYL)AMINO]-6-METHOXYQUINAZOLIN-7-YL}OXY)METHYL]PIPERIDIN-1-YL}-2-(DIMETHYLAMINO)ETHANONE

> <hERG>
1

$$$$

     RDKit          2D

 27 29  0  0  0  0  0  0  0  0999 V2000
   -2.4481   -4.6148    0.0000 C   0  0  0  0  0  0  0  0  0  0  0  0
   -3.2279   -3.3334    0.0000 C   0  0  0  0  0  0  0  0  0  0  0  0
   -4.0077   -2.0520    0.0000 C   0  0  0  0  0  0  0  0  0  0  0  0
   -4.5093   -4.1132    0.0000 C   0  0  0  0  0  0  0  0  0  0  0  0
   -1.9465   -2.5536    0.0000 C   0  0  0  0  0  0  0  0  0  0  0  0
   -0.6305   -3.2733    0.0000 N   0  0  0  0  0  0  0  0  0  0  0  0
   -1.9812   -1.0540    0.0000 C   0  0  0  0  0  0  0  0  0  0  0  0
   -3.2972   -0.3342    0.0000 O   0  0  0  0  0  0  0  0  0  0  0  0
   -0.6999   -0.2741    0.0000 N   0  0  0  0  0  0  0  0  0  0  0  0
    0.6842   -0.8524    0.0000 C   0  0  0  0  0  0  0  0  0  0  0  0
    1.6618    0.2852    0.0000 C   0  0  0  0  0  0  0  0  0  0  0  0
    3.1569    0.1629    0.0000 C   0  0  0  0  0  0  0  0  0  0  0  0
    3.7985   -1.1929    0.0000 C   0  0  0  0  0  0  0  0  0  0  0  0
    5.2935   -1.3152    0.0000 C   0  0  0  0  0  0  0  0  0  0  0  0
    5.9351   -2.6710    0.0000 F   0  0  0  0  0  0  0  0  0  0  0  0
    6.1469   -0.0816    0.0000 C   0  0  0  0  0  0  0  0  0  0  0  0
    5.5053    1.2743    0.0000 C   0  0  0  0  0  0  0  0  0  0  0  0
    4.0102    1.3965    0.0000 C   0  0  0  0  0  0  0  0  0  0  0  0
    3.3686    2.7524    0.0000 F   0  0  0  0  0  0  0  0  0  0  0  0
    0.8820    1.5666    0.0000 C   0  0  0  0  0  0  0  0  0  0  0  0
   -0.5776    1.2209    0.0000 C   0  0  0  0  0  0  0  0  0  0  0  0
   -1.7152    2.1985    0.0000 C   0  0  0  0  0  0  0  0  0  0  0  0
   -1.4374    3.6726    0.0000 C   0  0  0  0  0  0  0  0  0  0  0  0
   -2.5750    4.6502    0.0000 C   0  0  0  0  0  0  0  0  0  0  0  0
   -3.9905    4.1538    0.0000 C   0  0  0  0  0  0  0  0  0  0  0  0
   -4.2683    2.6798    0.0000 C   0  0  0  0  0  0  0  0  0  0  0  0
   -3.1307    1.7021    0.0000 C   0  0  0  0  0  0  0  0  0  0  0  0
  1  2  1  0
  2  3  1  0
  2  4  1  0
  2  5  1  0
  5  6  1  6
  5  7  1  0
  7  8  2  0
  7  9  1  0
  9 10  1  0
 10 11  1  0
 11 12  1  0
 12 13  2  0
 13 14  1  0
 14 15  1  0
 14 16  2  0
 16 17  1  0
 17 18  2  0
 18 19  1  0
 11 20  2  0
 20 21  1  0
 21 22  1  6
 22 23  2  0
 23 24  1  0
 24 25  2  0
 25 26  1  0
 26 27  2  0
 21  9  1  0
 27 22  1  0
 18 12  1  0
M  END
> <Identifier>
BMCL-16-2007-1777-20

> <hERG>
1

$$$$

     RDKit          2D

 22 25  0  0  0  0  0  0  0  0999 V2000
   -5.9307   -0.9766    0.0000 F   0  0  0  0  0  0  0  0  0  0  0  0
   -4.4673   -0.6472    0.0000 C   0  0  0  0  0  0  0  0  0  0  0  0
   -4.0209    0.7848    0.0000 C   0  0  0  0  0  0  0  0  0  0  0  0
   -2.5575    1.1142    0.0000 C   0  0  0  0  0  0  0  0  0  0  0  0
   -1.5406    0.0116    0.0000 C   0  0  0  0  0  0  0  0  0  0  0  0
   -0.0407    0.0295    0.0000 C   0  0  0  0  0  0  0  0  0  0  0  0
    0.8264    1.2535    0.0000 C   0  0  0  0  0  0  0  0  0  0  0  0
    2.3200    1.1146    0.0000 C   0  0  0  0  0  0  0  0  0  0  0  0
    3.1871    2.3386    0.0000 N   0  0  0  0  0  4  0  0  0  0  0  0
    2.5606    3.7015    0.0000 C   0  0  0  0  0  0  0  0  0  0  0  0
    1.0671    3.8404    0.0000 C   0  0  0  0  0  0  0  0  0  0  0  0
    0.2000    2.6165    0.0000 C   0  0  0  0  0  0  0  0  0  0  0  0
   -1.2936    2.7554    0.0000 F   0  0  0  0  0  0  0  0  0  0  0  0
    0.4399   -1.3914    0.0000 C   0  0  0  0  0  0  0  0  0  0  0  0
    1.8719   -1.8378    0.0000 C   0  0  0  0  0  0  0  0  0  0  0  0
    3.0748   -0.9417    0.0000 C   0  0  0  0  0  0  0  0  0  0  0  0
    4.2988   -1.8088    0.0000 C   0  0  0  0  0  0  0  0  0  0  0  0
    3.8524   -3.2408    0.0000 S   0  0  0  0  0  0  0  0  0  0  0  0
    2.3525   -3.2587    0.0000 C   0  0  0  0  0  0  0  0  0  0  0  0
   -0.7630   -2.2875    0.0000 N   0  0  0  0  0  0  0  0  0  0  0  0
   -1.9870   -1.4204    0.0000 C   0  0  0  0  0  0  0  0  0  0  0  0
   -3.4504   -1.7498    0.0000 C   0  0  0  0  0  0  0  0  0  0  0  0
  1  2  1  0
  2  3  2  0
  3  4  1  0
  4  5  2  0
  5  6  1  0
  7  6  1  1
  7  8  1  0
  8  9  1  0
  9 10  1  0
 10 11  1  0
 11 12  1  0
 12 13  1  6
  6 14  2  0
 14 15  1  0
 15 16  1  0
 16 17  2  0
 17 18  1  0
 18 19  1  0
 14 20  1  0
 20 21  1  0
 21 22  2  0
 22  2  1  0
 21  5  1  0
 12  7  1  0
 19 15  2  0
M  CHG  1   9   1
M  END
> <Identifier>
WOMBAT01

> <hERG>
1

$$$$

     RDKit          2D

 21 22  0  0  0  0  0  0  0  0999 V2000
   -2.0184    3.1278    0.0000 C   0  0  0  0  0  0  0  0  0  0  0  0
   -1.2907    1.8162    0.0000 C   0  0  0  0  0  0  0  0  0  0  0  0
    0.2091    1.7906    0.0000 C   0  0  0  0  0  0  0  0  0  0  0  0
    0.9369    0.4790    0.0000 C   0  0  0  0  0  0  0  0  0  0  0  0
    2.4366    0.4534    0.0000 C   0  0  0  0  0  0  0  0  0  0  0  0
    3.1644   -0.8582    0.0000 C   0  0  0  0  0  0  0  0  0  0  0  0
    4.6642   -0.8837    0.0000 C   0  0  0  0  0  0  0  0  0  0  0  0
    5.4362    0.4023    0.0000 C   0  0  0  0  0  0  0  0  0  0  0  0
    4.7085    1.7140    0.0000 C   0  0  0  0  0  0  0  0  0  0  0  0
    3.2087    1.7395    0.0000 C   0  0  0  0  0  0  0  0  0  0  0  0
    0.1648   -0.8071    0.0000 C   0  0  0  0  0  0  0  0  0  0  0  0
   -1.3349   -0.7815    0.0000 C   0  0  0  0  0  0  0  0  0  0  0  0
   -2.1070   -2.0676    0.0000 C   0  0  0  0  0  0  0  0  0  0  0  0
   -1.3792   -3.3792    0.0000 C   0  0  0  0  0  0  0  0  0  0  0  0
    0.1206   -3.4048    0.0000 C   0  0  0  0  0  0  0  0  0  0  0  0
    0.8926   -2.1187    0.0000 C   0  0  0  0  0  0  0  0  0  0  0  0
   -2.0627    0.5301    0.0000 N   0  0  0  0  0  4  0  0  0  0  0  0
   -3.5625    0.5556    0.0000 C   0  0  0  0  0  0  0  0  0  0  0  0
   -3.5880   -0.9441    0.0000 C   0  0  0  0  0  0  0  0  0  0  0  0
   -3.5369    2.0554    0.0000 C   0  0  0  0  0  0  0  0  0  0  0  0
   -5.0623    0.5812    0.0000 C   0  0  0  0  0  0  0  0  0  0  0  0
  2  1  1  6
  2  3  1  0
  3  4  1  0
  4  5  1  0
  5  6  2  0
  6  7  1  0
  7  8  2  0
  8  9  1  0
  9 10  2  0
  4 11  1  0
 11 12  2  0
 12 13  1  0
 13 14  2  0
 14 15  1  0
 15 16  2  0
  2 17  1  0
 17 18  1  0
 18 19  1  0
 18 20  1  0
 18 21  1  0
 10  5  1  0
 16 11  1  0
M  CHG  1  17   1
M  END
> <Identifier>
TERODILINE

> <hERG>
1

$$$$

     RDKit          2D

 28 31  0  0  0  0  0  0  0  0999 V2000
    6.2039   -3.3806    0.0000 C   0  0  0  0  0  0  0  0  0  0  0  0
    6.5621   -1.9240    0.0000 O   0  0  0  0  0  0  0  0  0  0  0  0
    5.4797   -0.8855    0.0000 C   0  0  0  0  0  0  0  0  0  0  0  0
    4.0392   -1.3036    0.0000 C   0  0  0  0  0  0  0  0  0  0  0  0
    2.9568   -0.2651    0.0000 C   0  0  0  0  0  0  0  0  0  0  0  0
    1.5163   -0.6832    0.0000 N   0  0  0  0  0  0  0  0  0  0  0  0
    0.4339    0.3552    0.0000 C   0  0  0  0  0  0  0  0  0  0  0  0
   -1.0067   -0.0629    0.0000 N   0  0  0  0  0  0  0  0  0  0  0  0
   -2.0890    0.9756    0.0000 C   0  0  0  0  0  0  0  0  0  0  0  0
   -3.5296    0.5575    0.0000 C   0  0  0  0  0  0  0  0  0  0  0  0
   -3.8878   -0.8991    0.0000 N   0  0  0  0  0  0  0  0  0  0  0  0
   -5.3283   -1.3172    0.0000 C   0  0  0  0  0  0  0  0  0  0  0  0
   -5.6865   -2.7738    0.0000 O   0  0  0  0  0  0  0  0  0  0  0  0
   -6.4107   -0.2787    0.0000 C   0  0  0  0  0  0  0  0  0  0  0  0
   -7.8870   -0.5440    0.0000 C   0  0  0  0  0  0  0  0  0  0  0  0
   -8.5955    0.7781    0.0000 C   0  0  0  0  0  0  0  0  0  0  0  0
   -7.5570    1.8605    0.0000 C   0  0  0  0  0  0  0  0  0  0  0  0
   -6.2067    1.2073    0.0000 O   0  0  0  0  0  0  0  0  0  0  0  0
   -2.8054   -1.9376    0.0000 C   0  0  0  0  0  0  0  0  0  0  0  0
   -1.3648   -1.5195    0.0000 C   0  0  0  0  0  0  0  0  0  0  0  0
    0.7921    1.8119    0.0000 N   0  0  0  0  0  0  0  0  0  0  0  0
    2.2326    2.2300    0.0000 C   0  0  0  0  0  0  0  0  0  0  0  0
    2.5908    3.6866    0.0000 N   0  0  0  0  0  0  0  0  0  0  0  0
    3.3150    1.1915    0.0000 C   0  0  0  0  0  0  0  0  0  0  0  0
    4.7555    1.6096    0.0000 C   0  0  0  0  0  0  0  0  0  0  0  0
    5.8379    0.5711    0.0000 C   0  0  0  0  0  0  0  0  0  0  0  0
    7.2784    0.9892    0.0000 O   0  0  0  0  0  0  0  0  0  0  0  0
    8.3608   -0.0492    0.0000 C   0  0  0  0  0  0  0  0  0  0  0  0
  1  2  1  0
  2  3  1  0
  3  4  2  0
  4  5  1  0
  5  6  2  0
  6  7  1  0
  7  8  1  0
  8  9  1  0
  9 10  1  0
 10 11  1  0
 11 12  1  0
 12 13  2  0
 12 14  1  0
 14 15  2  0
 15 16  1  0
 16 17  2  0
 17 18  1  0
 11 19  1  0
 19 20  1  0
  7 21  2  0
 21 22  1  0
 22 23  1  0
 22 24  2  0
 24 25  1  0
 25 26  2  0
 26 27  1  0
 27 28  1  0
 26  3  1  0
 24  5  1  0
 20  8  1  0
 18 14  1  0
M  END
> <Identifier>
PRAZOSIN

> <hERG>
1

$$$$

     RDKit          2D

 28 31  0  0  0  0  0  0  0  0999 V2000
    6.2039   -3.3806    0.0000 C   0  0  0  0  0  0  0  0  0  0  0  0
    6.5621   -1.9240    0.0000 O   0  0  0  0  0  0  0  0  0  0  0  0
    5.4797   -0.8855    0.0000 C   0  0  0  0  0  0  0  0  0  0  0  0
    4.0392   -1.3036    0.0000 C   0  0  0  0  0  0  0  0  0  0  0  0
    2.9568   -0.2651    0.0000 C   0  0  0  0  0  0  0  0  0  0  0  0
    1.5163   -0.6832    0.0000 N   0  0  0  0  0  0  0  0  0  0  0  0
    0.4339    0.3552    0.0000 C   0  0  0  0  0  0  0  0  0  0  0  0
   -1.0067   -0.0629    0.0000 N   0  0  0  0  0  0  0  0  0  0  0  0
   -2.0890    0.9756    0.0000 C   0  0  0  0  0  0  0  0  0  0  0  0
   -3.5296    0.5575    0.0000 C   0  0  0  0  0  0  0  0  0  0  0  0
   -3.8878   -0.8991    0.0000 N   0  0  0  0  0  0  0  0  0  0  0  0
   -5.3283   -1.3172    0.0000 C   0  0  0  0  0  0  0  0  0  0  0  0
   -5.6865   -2.7738    0.0000 O   0  0  0  0  0  0  0  0  0  0  0  0
   -6.4107   -0.2787    0.0000 C   0  0  0  0  0  0  0  0  0  0  0  0
   -7.8870   -0.5440    0.0000 C   0  0  0  0  0  0  0  0  0  0  0  0
   -8.5955    0.7781    0.0000 C   0  0  0  0  0  0  0  0  0  0  0  0
   -7.5570    1.8605    0.0000 C   0  0  0  0  0  0  0  0  0  0  0  0
   -6.2067    1.2073    0.0000 O   0  0  0  0  0  0  0  0  0  0  0  0
   -2.8054   -1.9376    0.0000 C   0  0  0  0  0  0  0  0  0  0  0  0
   -1.3648   -1.5195    0.0000 C   0  0  0  0  0  0  0  0  0  0  0  0
    0.7921    1.8119    0.0000 N   0  0  0  0  0  0  0  0  0  0  0  0
    2.2326    2.2300    0.0000 C   0  0  0  0  0  0  0  0  0  0  0  0
    2.5908    3.6866    0.0000 N   0  0  0  0  0  0  0  0  0  0  0  0
    3.3150    1.1915    0.0000 C   0  0  0  0  0  0  0  0  0  0  0  0
    4.7555    1.6096    0.0000 C   0  0  0  0  0  0  0  0  0  0  0  0
    5.8379    0.5711    0.0000 C   0  0  0  0  0  0  0  0  0  0  0  0
    7.2784    0.9892    0.0000 O   0  0  0  0  0  0  0  0  0  0  0  0
    8.3608   -0.0492    0.0000 C   0  0  0  0  0  0  0  0  0  0  0  0
  1  2  1  0
  2  3  1  0
  3  4  2  0
  4  5  1  0
  5  6  1  0
  6  7  2  0
  7  8  1  0
  8  9  1  0
  9 10  1  0
 10 11  1  0
 11 12  1  0
 12 13  2  0
 12 14  1  0
 14 15  2  0
 15 16  1  0
 16 17  2  0
 17 18  1  0
 11 19  1  0
 19 20  1  0
  7 21  1  0
 21 22  1  0
 22 23  2  0
 22 24  1  0
 24 25  1  0
 25 26  2  0
 26 27  1  0
 27 28  1  0
 26  3  1  0
 24  5  2  0
 20  8  1  0
 18 14  1  0
M  END
> <Identifier>
nan

> <hERG>
1

$$$$

     RDKit          2D

 28 30  0  0  0  0  0  0  0  0999 V2000
    2.8434   -3.7888    0.0000 C   0  0  0  0  0  0  0  0  0  0  0  0
    1.8298   -2.6830    0.0000 C   0  0  0  0  0  0  0  0  0  0  0  0
    2.2807   -1.2524    0.0000 C   0  0  0  0  0  0  0  0  0  0  0  0
    1.2672   -0.1466    0.0000 C   0  0  0  0  0  0  0  0  0  0  0  0
    1.7181    1.2840    0.0000 C   0  0  0  0  0  0  0  0  0  0  0  0
    3.1825    1.6089    0.0000 C   0  0  0  0  0  0  0  0  0  0  0  0
    3.6333    3.0395    0.0000 C   0  0  0  0  0  0  0  0  0  0  0  0
    2.6198    4.1453    0.0000 C   0  0  0  0  0  0  0  0  0  0  0  0
    1.1554    3.8205    0.0000 C   0  0  0  0  0  0  0  0  0  0  0  0
    0.7045    2.3898    0.0000 C   0  0  0  0  0  0  0  0  0  0  0  0
   -0.1972   -0.4714    0.0000 C   0  0  0  0  0  0  0  0  0  0  0  0
   -1.2108    0.6343    0.0000 C   0  0  0  0  0  0  0  0  0  0  0  0
   -2.6752    0.3095    0.0000 C   0  0  0  0  0  0  0  0  0  0  0  0
   -3.1260   -1.1211    0.0000 C   0  0  0  0  0  0  0  0  0  0  0  0
   -4.5904   -1.4460    0.0000 O   0  0  0  0  0  0  0  0  0  0  0  0
   -5.6040   -0.3402    0.0000 C   0  0  0  0  0  0  0  0  0  0  0  0
   -7.0684   -0.6651    0.0000 C   0  0  0  0  0  0  0  0  0  0  0  0
   -8.0819    0.4407    0.0000 N   0  0  0  0  0  4  0  0  0  0  0  0
   -9.5463    0.1159    0.0000 C   0  0  0  0  0  0  0  0  0  0  0  0
   -7.6310    1.8714    0.0000 C   0  0  0  0  0  0  0  0  0  0  0  0
   -2.1125   -2.2269    0.0000 C   0  0  0  0  0  0  0  0  0  0  0  0
   -0.6481   -1.9021    0.0000 C   0  0  0  0  0  0  0  0  0  0  0  0
    3.7451   -0.9275    0.0000 C   0  0  0  0  0  0  0  0  0  0  0  0
    4.7586   -2.0333    0.0000 C   0  0  0  0  0  0  0  0  0  0  0  0
    6.2230   -1.7085    0.0000 C   0  0  0  0  0  0  0  0  0  0  0  0
    6.6739   -0.2778    0.0000 C   0  0  0  0  0  0  0  0  0  0  0  0
    5.6604    0.8279    0.0000 C   0  0  0  0  0  0  0  0  0  0  0  0
    4.1960    0.5031    0.0000 C   0  0  0  0  0  0  0  0  0  0  0  0
  1  2  1  0
  2  3  1  0
  3  4  2  0
  4  5  1  0
  5  6  2  0
  6  7  1  0
  7  8  2  0
  8  9  1  0
  9 10  2  0
  4 11  1  0
 11 12  2  0
 12 13  1  0
 13 14  2  0
 14 15  1  0
 15 16  1  0
 16 17  1  0
 17 18  1  0
 18 19  1  0
 18 20  1  0
 14 21  1  0
 21 22  2  0
  3 23  1  0
 23 24  2  0
 24 25  1  0
 25 26  2  0
 26 27  1  0
 27 28  2  0
 10  5  1  0
 22 11  1  0
 28 23  1  0
M  CHG  1  18   1
M  END
> <Identifier>
TAMOXIFEN

> <hERG>
1

$$$$

     RDKit          2D

 21 23  0  0  0  0  0  0  0  0999 V2000
   -5.1962   -2.7143    0.0000 F   0  0  0  0  0  0  0  0  0  0  0  0
   -3.8971   -1.9643    0.0000 C   0  0  0  0  0  0  0  0  0  0  0  0
   -3.8971   -0.4643    0.0000 C   0  0  0  0  0  0  0  0  0  0  0  0
   -2.5981    0.2857    0.0000 C   0  0  0  0  0  0  0  0  0  0  0  0
   -1.2990   -0.4643    0.0000 C   0  0  0  0  0  0  0  0  0  0  0  0
    0.0000    0.2857    0.0000 C   0  0  0  0  0  0  0  0  0  0  0  0
    1.2990   -0.4643    0.0000 C   0  0  0  0  0  0  0  0  0  0  0  0
    1.2990   -1.9643    0.0000 C   0  0  0  0  0  0  0  0  0  0  0  0
    2.5981   -2.7143    0.0000 C   0  0  0  0  0  0  0  0  0  0  0  0
    3.8971   -1.9643    0.0000 C   0  0  0  0  0  0  0  0  0  0  0  0
    5.1962   -2.7143    0.0000 F   0  0  0  0  0  0  0  0  0  0  0  0
    3.8971   -0.4643    0.0000 C   0  0  0  0  0  0  0  0  0  0  0  0
    2.5981    0.2857    0.0000 C   0  0  0  0  0  0  0  0  0  0  0  0
   -0.0000    1.7857    0.0000 N   0  0  0  0  0  0  0  0  0  0  0  0
    1.2990    2.5357    0.0000 C   0  0  0  0  0  0  0  0  0  0  0  0
    1.2990    4.0357    0.0000 C   0  0  0  0  0  0  0  0  0  0  0  0
   -0.0000    4.7857    0.0000 N   0  0  0  0  0  0  0  0  0  0  0  0
   -1.2990    4.0357    0.0000 C   0  0  0  0  0  0  0  0  0  0  0  0
   -1.2990    2.5357    0.0000 C   0  0  0  0  0  0  0  0  0  0  0  0
   -1.2990   -1.9643    0.0000 C   0  0  0  0  0  0  0  0  0  0  0  0
   -2.5981   -2.7143    0.0000 C   0  0  0  0  0  0  0  0  0  0  0  0
  1  2  1  0
  2  3  2  0
  3  4  1  0
  4  5  2  0
  5  6  1  0
  6  7  1  0
  7  8  2  0
  8  9  1  0
  9 10  2  0
 10 11  1  0
 10 12  1  0
 12 13  2  0
  6 14  1  0
 14 15  1  0
 15 16  1  0
 16 17  1  0
 17 18  1  0
 18 19  1  0
  5 20  1  0
 20 21  2  0
 21  2  1  0
 13  7  1  0
 19 14  1  0
M  END
> <Identifier>
1-(BIS(4-FLUOROPHENYL)METHYL)PIPERAZINE

> <hERG>
1

$$$$

     RDKit          2D

 24 27  0  0  0  0  0  0  0  0999 V2000
   -6.2433   -1.5677    0.0000 F   0  0  0  0  0  0  0  0  0  0  0  0
   -4.7475   -1.4558    0.0000 C   0  0  0  0  0  0  0  0  0  0  0  0
   -4.0965   -0.1044    0.0000 C   0  0  0  0  0  0  0  0  0  0  0  0
   -2.6007    0.0074    0.0000 C   0  0  0  0  0  0  0  0  0  0  0  0
   -1.7559   -1.2320    0.0000 C   0  0  0  0  0  0  0  0  0  0  0  0
   -0.2601   -1.1201    0.0000 C   0  0  0  0  0  0  0  0  0  0  0  0
    0.7097   -2.2645    0.0000 N   0  0  0  0  0  0  0  0  0  0  0  0
    2.0977   -1.6959    0.0000 C   0  0  0  0  0  0  0  0  0  0  0  0
    3.4491   -2.3469    0.0000 C   0  0  0  0  0  0  0  0  0  0  0  0
    4.6886   -1.5021    0.0000 C   0  0  0  0  0  0  0  0  0  0  0  0
    6.0399   -2.1531    0.0000 F   0  0  0  0  0  0  0  0  0  0  0  0
    4.5767   -0.0063    0.0000 C   0  0  0  0  0  0  0  0  0  0  0  0
    3.2253    0.6447    0.0000 C   0  0  0  0  0  0  0  0  0  0  0  0
    1.9858   -0.2001    0.0000 C   0  0  0  0  0  0  0  0  0  0  0  0
    0.5286    0.1558    0.0000 C   0  0  0  0  0  0  0  0  0  0  0  0
   -0.0400    1.5438    0.0000 C   0  0  0  0  0  0  0  0  0  0  0  0
   -1.5264    1.7454    0.0000 C   0  0  0  0  0  0  0  0  0  0  0  0
   -2.0950    3.1334    0.0000 N   0  0  0  0  0  4  0  0  0  0  0  0
   -1.1773    4.3199    0.0000 C   0  0  0  0  0  0  0  0  0  0  0  0
    0.3091    4.1183    0.0000 C   0  0  0  0  0  0  0  0  0  0  0  0
    0.8778    2.7303    0.0000 C   0  0  0  0  0  0  0  0  0  0  0  0
    2.3641    2.5287    0.0000 F   0  0  0  0  0  0  0  0  0  0  0  0
   -2.4069   -2.5834    0.0000 C   0  0  0  0  0  0  0  0  0  0  0  0
   -3.9027   -2.6953    0.0000 C   0  0  0  0  0  0  0  0  0  0  0  0
  1  2  1  0
  2  3  2  0
  3  4  1  0
  4  5  2  0
  5  6  1  0
  6  7  1  0
  7  8  1  0
  8  9  2  0
  9 10  1  0
 10 11  1  0
 10 12  2  0
 12 13  1  0
 13 14  2  0
 14 15  1  0
 16 15  1  6
 16 17  1  0
 17 18  1  0
 18 19  1  0
 19 20  1  0
 20 21  1  0
 21 22  1  6
  5 23  1  0
 23 24  2  0
 24  2  1  0
 15  6  2  0
 21 16  1  0
 14  8  1  0
M  CHG  1  18   1
M  END
> <Identifier>
WOMBAT40

> <hERG>
1

$$$$

     RDKit          2D

 32 35  0  0  0  0  0  0  0  0999 V2000
   -3.1664   -6.4467    0.0000 C   0  0  0  0  0  0  0  0  0  0  0  0
   -2.4998   -5.1030    0.0000 C   0  0  0  0  0  0  0  0  0  0  0  0
   -1.0208   -4.8526    0.0000 C   0  0  0  0  0  0  0  0  0  0  0  0
   -0.8020   -3.3686    0.0000 C   0  0  0  0  0  0  0  0  0  0  0  0
   -2.1457   -2.7020    0.0000 C   0  0  0  0  0  0  0  0  0  0  0  0
   -2.3962   -1.2230    0.0000 C   0  0  0  0  0  0  0  0  0  0  0  0
   -1.2406   -0.2666    0.0000 N   0  0  0  0  0  0  0  0  0  0  0  0
   -1.4911    1.2123    0.0000 C   0  0  0  0  0  0  0  0  0  0  0  0
   -0.3355    2.1687    0.0000 N   0  0  0  0  0  0  0  0  0  0  0  0
    1.0705    1.6461    0.0000 C   0  0  0  0  0  0  0  0  0  0  0  0
    1.3210    0.1672    0.0000 O   0  0  0  0  0  0  0  0  0  0  0  0
    2.2261    2.6025    0.0000 C   0  0  0  0  0  0  0  0  0  0  0  0
    3.6321    2.0799    0.0000 N   0  0  0  0  0  0  0  0  0  0  0  0
    3.8826    0.6010    0.0000 C   0  0  0  0  0  0  0  0  0  0  0  0
    5.2886    0.0784    0.0000 C   0  0  0  0  0  0  0  0  0  0  0  0
    6.4442    1.0348    0.0000 C   0  0  0  0  0  0  0  0  0  0  0  0
    7.8502    0.5122    0.0000 C   0  0  0  0  0  0  0  0  0  0  0  0
    8.1007   -0.9667    0.0000 N   0  0  0  0  0  0  0  0  0  0  0  0
    9.5067   -1.4893    0.0000 C   0  0  0  0  0  0  0  0  0  0  0  0
    6.9451   -1.9231    0.0000 C   0  0  0  0  0  0  0  0  0  0  0  0
    6.1937    2.5137    0.0000 C   0  0  0  0  0  0  0  0  0  0  0  0
    4.7877    3.0363    0.0000 C   0  0  0  0  0  0  0  0  0  0  0  0
   -2.8971    1.7349    0.0000 C   0  0  0  0  0  0  0  0  0  0  0  0
   -4.0527    0.7785    0.0000 C   0  0  0  0  0  0  0  0  0  0  0  0
   -5.4587    1.3011    0.0000 N   0  0  0  0  0  0  0  0  0  0  0  0
   -6.7079    0.4707    0.0000 N   0  0  0  0  0  0  0  0  0  0  0  0
   -7.8836    1.4022    0.0000 C   0  0  0  0  0  0  0  0  0  0  0  0
   -7.3611    2.8082    0.0000 C   0  0  0  0  0  0  0  0  0  0  0  0
   -5.8624    2.7457    0.0000 C   0  0  0  0  0  0  0  0  0  0  0  0
   -4.9309    3.9215    0.0000 C   0  0  0  0  0  0  0  0  0  0  0  0
   -3.8022   -0.7004    0.0000 N   0  0  0  0  0  0  0  0  0  0  0  0
   -3.1950   -3.7739    0.0000 O   0  0  0  0  0  0  0  0  0  0  0  0
  1  2  1  0
  2  3  2  0
  3  4  1  0
  4  5  2  0
  5  6  1  0
  6  7  2  0
  7  8  1  0
  8  9  1  0
  9 10  1  0
 10 11  2  0
 10 12  1  0
 12 13  1  0
 13 14  1  0
 14 15  1  0
 15 16  1  0
 16 17  1  0
 17 18  1  0
 18 19  1  0
 18 20  1  0
 16 21  1  0
 21 22  1  0
  8 23  2  0
 23 24  1  0
 24 25  1  0
 25 26  1  0
 26 27  2  0
 27 28  1  0
 28 29  2  0
 29 30  1  0
 24 31  2  0
  5 32  1  0
 32  2  1  0
 31  6  1  0
 22 13  1  0
 29 25  1  0
M  END
> <Identifier>
2-AMINO-N-PYRIMIDIN-4-YLACETAMIDE-3

> <hERG>
1

$$$$

     RDKit          2D

 33 38  0  0  0  0  0  0  0  0999 V2000
   -5.6348   -1.0035    0.0000 C   0  0  0  0  0  0  0  0  0  0  0  0
   -4.1442   -0.8356    0.0000 C   0  0  0  0  0  0  0  0  0  0  0  0
   -2.6537   -0.6677    0.0000 C   0  0  0  0  0  0  0  0  0  0  0  0
   -1.9134    0.6369    0.0000 C   0  0  0  0  0  0  0  0  0  0  0  0
   -0.4438    0.3359    0.0000 C   0  0  0  0  0  0  0  0  0  0  0  0
    0.6634    1.3479    0.0000 C   0  0  0  0  0  0  0  0  0  0  0  0
    0.4955    2.8385    0.0000 N   0  0  0  0  0  0  0  0  0  0  0  0
    1.8612    3.4588    0.0000 N   0  0  0  0  0  0  0  0  0  0  0  0
    2.8732    2.3516    0.0000 C   0  0  0  0  0  0  0  0  0  0  0  0
    2.1329    1.0470    0.0000 C   0  0  0  0  0  0  0  0  0  0  0  0
    3.1448   -0.0602    0.0000 C   0  0  0  0  0  0  0  0  0  0  0  0
    4.5106    0.5600    0.0000 C   0  0  0  0  0  0  0  0  0  0  0  0
    5.8854   -0.0399    0.0000 C   0  0  0  0  0  0  0  0  0  0  0  0
    7.0923    0.8508    0.0000 C   0  0  0  0  0  0  0  0  0  0  0  0
    8.4671    0.2509    0.0000 C   0  0  0  0  0  0  0  0  0  0  0  0
    8.6350   -1.2396    0.0000 N   0  0  0  0  0  0  0  0  0  0  0  0
    9.9396   -1.9799    0.0000 C   0  0  0  0  0  0  0  0  0  0  0  0
    9.6387   -3.4494    0.0000 N   0  0  0  0  0  0  0  0  0  0  0  0
    8.1481   -3.6173    0.0000 C   0  0  0  0  0  0  0  0  0  0  0  0
    7.5278   -2.2516    0.0000 N   0  0  0  0  0  0  0  0  0  0  0  0
    6.9244    2.3414    0.0000 C   0  0  0  0  0  0  0  0  0  0  0  0
    5.5496    2.9413    0.0000 C   0  0  0  0  0  0  0  0  0  0  0  0
    4.3427    2.0506    0.0000 C   0  0  0  0  0  0  0  0  0  0  0  0
   -0.2760   -1.1546    0.0000 C   0  0  0  0  0  0  0  0  0  0  0  0
   -1.6417   -1.7749    0.0000 S   0  0  0  0  0  0  0  0  0  0  0  0
   -7.1254   -1.1714    0.0000 C   0  0  0  0  0  0  0  0  0  0  0  0
   -8.0161    0.0355    0.0000 O   0  0  0  0  0  0  0  0  0  0  0  0
   -9.5066   -0.1323    0.0000 C   0  0  0  0  0  0  0  0  0  0  0  0
  -10.3973    1.0746    0.0000 C   0  0  0  0  0  0  0  0  0  0  0  0
  -11.8879    0.9067    0.0000 C   0  0  0  0  0  0  0  0  0  0  0  0
  -12.4878   -0.4681    0.0000 C   0  0  0  0  0  0  0  0  0  0  0  0
  -11.5971   -1.6751    0.0000 C   0  0  0  0  0  0  0  0  0  0  0  0
  -10.1065   -1.5072    0.0000 C   0  0  0  0  0  0  0  0  0  0  0  0
  1  2  3  0
  2  3  1  0
  3  4  2  0
  4  5  1  0
  5  6  1  0
  6  7  2  0
  7  8  1  0
  8  9  1  0
  9 10  2  0
 10 11  1  0
 11 12  1  0
 12 13  2  0
 13 14  1  0
 14 15  1  0
 15 16  1  0
 16 17  1  0
 17 18  2  0
 18 19  1  0
 19 20  2  0
 14 21  2  0
 21 22  1  0
 22 23  2  0
  5 24  2  0
 24 25  1  0
  1 26  1  0
 26 27  1  0
 27 28  1  0
 28 29  2  0
 29 30  1  0
 30 31  2  0
 31 32  1  0
 32 33  2  0
 25  3  1  0
 33 28  1  0
 10  6  1  0
 23 12  1  0
 23  9  1  0
 20 16  1  0
M  END
> <Identifier>
1,4-DIHYDROINDENO[1,2-C]PYRAZOL_85

> <hERG>
1

$$$$

     RDKit          2D

 36 39  0  0  0  0  0  0  0  0999 V2000
  -12.1997    1.2182    0.0000 C   0  0  0  0  0  0  0  0  0  0  0  0
  -11.2389    0.0663    0.0000 C   0  0  0  0  0  0  0  0  0  0  0  0
   -9.7610    0.3225    0.0000 N   0  0  0  0  0  0  0  0  0  0  0  0
   -9.2438    1.7305    0.0000 C   0  0  0  0  0  0  0  0  0  0  0  0
  -10.2046    2.8824    0.0000 C   0  0  0  0  0  0  0  0  0  0  0  0
   -8.8001   -0.8294    0.0000 C   0  0  0  0  0  0  0  0  0  0  0  0
   -7.3222   -0.5732    0.0000 C   0  0  0  0  0  0  0  0  0  0  0  0
   -6.8050    0.8348    0.0000 C   0  0  0  0  0  0  0  0  0  0  0  0
   -5.3271    1.0909    0.0000 C   0  0  0  0  0  0  0  0  0  0  0  0
   -4.3662   -0.0609    0.0000 C   0  0  0  0  0  0  0  0  0  0  0  0
   -4.8834   -1.4690    0.0000 C   0  0  0  0  0  0  0  0  0  0  0  0
   -6.3613   -1.7251    0.0000 C   0  0  0  0  0  0  0  0  0  0  0  0
   -3.9226   -2.6208    0.0000 C   0  0  0  0  0  0  0  0  0  0  0  0
   -2.4446   -2.3647    0.0000 C   0  0  0  0  0  0  0  0  0  0  0  0
   -1.9274   -0.9566    0.0000 C   0  0  0  0  0  0  0  0  0  0  0  0
   -0.4495   -0.7005    0.0000 N   0  0  0  0  0  0  0  0  0  0  0  0
    0.5113   -1.8524    0.0000 C   0  0  0  0  0  0  0  0  0  0  0  0
    1.9893   -1.5962    0.0000 C   0  0  0  0  0  0  0  0  0  0  0  0
    2.5065   -0.1882    0.0000 N   0  0  0  0  0  0  0  0  0  0  0  0
    3.9844    0.0680    0.0000 C   0  0  0  0  0  0  0  0  0  0  0  0
    4.9452   -1.0839    0.0000 C   0  0  0  0  0  0  0  0  0  0  0  0
    6.4232   -0.8277    0.0000 C   0  0  0  0  0  0  0  0  0  0  0  0
    7.3840   -1.9796    0.0000 C   0  0  0  0  0  0  0  0  0  0  0  0
    8.8620   -1.7234    0.0000 C   0  0  0  0  0  0  0  0  0  0  0  0
    9.8228   -2.8753    0.0000 N   0  0  0  0  0  0  0  0  0  0  0  0
    9.3791   -0.3154    0.0000 C   0  0  0  0  0  0  0  0  0  0  0  0
    8.4183    0.8365    0.0000 C   0  0  0  0  0  0  0  0  0  0  0  0
    8.9355    2.2445    0.0000 C   0  0  0  0  0  0  0  0  0  0  0  0
    9.4526    3.6525    0.0000 F   0  0  0  0  0  0  0  0  0  0  0  0
   10.3435    1.7274    0.0000 F   0  0  0  0  0  0  0  0  0  0  0  0
    7.5274    2.7617    0.0000 F   0  0  0  0  0  0  0  0  0  0  0  0
    6.9403    0.5803    0.0000 C   0  0  0  0  0  0  0  0  0  0  0  0
    1.5456    0.9637    0.0000 C   0  0  0  0  0  0  0  0  0  0  0  0
    0.0677    0.7076    0.0000 C   0  0  0  0  0  0  0  0  0  0  0  0
   -0.8932    1.8594    0.0000 O   0  0  0  0  0  0  0  0  0  0  0  0
   -2.8883    0.1952    0.0000 C   0  0  0  0  0  0  0  0  0  0  0  0
  1  2  1  0
  2  3  1  0
  3  4  1  0
  4  5  1  0
  3  6  1  0
  6  7  1  0
  7  8  2  0
  8  9  1  0
  9 10  2  0
 10 11  1  0
 11 12  2  0
 11 13  1  0
 13 14  1  0
 14 15  1  0
 15 16  1  1
 16 17  1  0
 17 18  1  0
 18 19  1  0
 19 20  1  0
 20 21  1  0
 21 22  1  0
 22 23  2  0
 23 24  1  0
 24 25  1  0
 24 26  2  0
 26 27  1  0
 27 28  1  0
 28 29  1  0
 28 30  1  0
 28 31  1  0
 27 32  2  0
 19 33  1  0
 33 34  1  0
 34 35  2  0
 15 36  1  0
 12  7  1  0
 34 16  1  0
 36 10  1  0
 32 22  1  0
M  END
> <Identifier>
AMINOMETHYL TETRAHYDRONAPHTHALENE KETOPIPERAZINE 2B

> <hERG>
1

$$$$

     RDKit          2D

 31 35  0  0  0  0  0  0  0  0999 V2000
   -0.5829    3.5551    0.0000 O   0  0  0  0  0  0  0  0  0  0  0  0
   -1.5483    2.6114    0.0000 C   0  0  0  0  0  0  0  0  0  0  0  0
   -2.9854    3.0413    0.0000 N   0  0  0  0  0  0  0  0  0  0  0  0
   -3.8383    1.8074    0.0000 C   0  0  0  0  0  0  0  0  0  0  0  0
   -2.9283    0.6149    0.0000 C   0  0  0  0  0  0  0  0  0  0  0  0
   -3.3582   -0.8222    0.0000 C   0  0  0  0  0  0  0  0  0  0  0  0
   -4.8177   -1.1684    0.0000 C   0  0  0  0  0  0  0  0  0  0  0  0
   -5.2475   -2.6055    0.0000 C   0  0  0  0  0  0  0  0  0  0  0  0
   -4.2179   -3.6963    0.0000 C   0  0  0  0  0  0  0  0  0  0  0  0
   -2.7584   -3.3501    0.0000 C   0  0  0  0  0  0  0  0  0  0  0  0
   -2.3286   -1.9130    0.0000 C   0  0  0  0  0  0  0  0  0  0  0  0
   -1.5131    1.1119    0.0000 C   0  0  0  0  0  0  0  0  0  0  0  0
   -1.6347   -0.3832    0.0000 C   0  0  0  0  0  0  0  0  0  0  0  0
   -0.4008   -1.2361    0.0000 C   0  0  0  0  0  0  0  0  0  0  0  0
    0.9548   -0.5939    0.0000 N   0  0  0  0  0  0  0  0  0  0  0  0
    2.1887   -1.4468    0.0000 C   0  0  0  0  0  0  0  0  0  0  0  0
    2.0670   -2.9419    0.0000 C   0  0  0  0  0  0  0  0  0  0  0  0
    3.3009   -3.7948    0.0000 C   0  0  0  0  0  0  0  0  0  0  0  0
    4.6565   -3.1527    0.0000 C   0  0  0  0  0  0  0  0  0  0  0  0
    4.7782   -1.6576    0.0000 C   0  0  0  0  0  0  0  0  0  0  0  0
    3.5443   -0.8047    0.0000 C   0  0  0  0  0  0  0  0  0  0  0  0
    4.5985    0.2624    0.0000 O   0  0  0  0  0  0  0  0  0  0  0  0
    2.6765    0.4188    0.0000 C   0  0  0  0  0  0  0  0  0  0  0  0
    1.1830    0.2790    0.0000 C   0  0  0  0  0  0  0  0  0  0  0  0
    0.3152    1.5025    0.0000 C   0  0  0  0  0  0  0  0  0  0  0  0
    0.9409    2.8658    0.0000 C   0  0  0  0  0  0  0  0  0  0  0  0
    0.3000    4.0539    0.0000 F   0  0  0  0  0  0  0  0  0  0  0  0
    2.4344    3.0056    0.0000 C   0  0  0  0  0  0  0  0  0  0  0  0
    3.3022    1.7821    0.0000 C   0  0  0  0  0  0  0  0  0  0  0  0
    1.0765    0.9011    0.0000 C   0  0  0  0  0  0  0  0  0  0  0  0
   -0.1575    1.7540    0.0000 C   0  0  0  0  0  0  0  0  0  0  0  0
  1  2  2  0
  2  3  1  0
  3  4  1  0
  4  5  1  0
  5  6  1  6
  6  7  2  0
  7  8  1  0
  8  9  2  0
  9 10  1  0
 10 11  2  0
  5 12  1  0
 12 13  1  0
 13 14  1  0
 14 15  1  0
 16 15  1  6
 16 17  1  0
 17 18  1  0
 18 19  1  0
 19 20  1  0
 20 21  1  0
 21 22  1  1
 21 23  1  0
 23 24  1  0
 24 25  1  0
 25 26  1  0
 26 27  1  0
 26 28  1  0
 28 29  1  0
 15 30  1  0
 30 31  1  0
 12  2  1  0
 21 16  1  0
 29 23  1  0
 11  6  1  0
 31 12  1  0
M  END
> <Identifier>
BMCL-16-2006-4313-12c

> <hERG>
1

$$$$

     RDKit          2D

 25 27  0  0  0  0  0  0  0  0999 V2000
    4.0236   -4.3317    0.0000 C   0  0  0  0  0  0  0  0  0  0  0  0
    3.2118   -3.0703    0.0000 C   0  0  0  0  0  0  0  0  0  0  0  0
    3.8983   -1.7366    0.0000 C   0  0  0  0  0  0  0  0  0  0  0  0
    5.3965   -1.6643    0.0000 O   0  0  0  0  0  0  0  0  0  0  0  0
    3.0865   -0.4753    0.0000 N   0  0  0  0  0  0  0  0  0  0  0  0
    3.7730    0.8584    0.0000 C   0  0  0  0  0  0  0  0  0  0  0  0
    5.2713    0.9308    0.0000 C   0  0  0  0  0  0  0  0  0  0  0  0
    5.9577    2.2645    0.0000 C   0  0  0  0  0  0  0  0  0  0  0  0
    5.1460    3.5258    0.0000 C   0  0  0  0  0  0  0  0  0  0  0  0
    3.6477    3.4535    0.0000 C   0  0  0  0  0  0  0  0  0  0  0  0
    2.9612    2.1198    0.0000 C   0  0  0  0  0  0  0  0  0  0  0  0
    1.5883   -0.5476    0.0000 C   0  0  0  0  0  0  0  0  0  0  0  0
    0.7765    0.7138    0.0000 C   0  0  0  0  0  0  0  0  0  0  0  0
   -0.7218    0.6414    0.0000 C   0  0  0  0  0  0  0  0  0  0  0  0
   -1.4083   -0.6922    0.0000 N   0  0  0  0  0  4  0  0  0  0  0  0
   -2.9065   -0.7646    0.0000 C   0  0  0  0  0  0  0  0  0  0  0  0
   -3.7183    0.4968    0.0000 C   0  0  0  0  0  0  0  0  0  0  0  0
   -5.2165    0.4245    0.0000 C   0  0  0  0  0  0  0  0  0  0  0  0
   -6.0283    1.6858    0.0000 C   0  0  0  0  0  0  0  0  0  0  0  0
   -7.5266    1.6135    0.0000 C   0  0  0  0  0  0  0  0  0  0  0  0
   -8.2130    0.2798    0.0000 C   0  0  0  0  0  0  0  0  0  0  0  0
   -7.4013   -0.9816    0.0000 C   0  0  0  0  0  0  0  0  0  0  0  0
   -5.9030   -0.9092    0.0000 C   0  0  0  0  0  0  0  0  0  0  0  0
   -0.5965   -1.9536    0.0000 C   0  0  0  0  0  0  0  0  0  0  0  0
    0.9018   -1.8813    0.0000 C   0  0  0  0  0  0  0  0  0  0  0  0
  1  2  1  0
  2  3  1  0
  3  4  2  0
  3  5  1  0
  5  6  1  0
  6  7  2  0
  7  8  1  0
  8  9  2  0
  9 10  1  0
 10 11  2  0
  5 12  1  0
 12 13  1  0
 13 14  1  0
 14 15  1  0
 15 16  1  0
 16 17  1  0
 17 18  1  0
 18 19  2  0
 19 20  1  0
 20 21  2  0
 21 22  1  0
 22 23  2  0
 15 24  1  0
 24 25  1  0
 11  6  1  0
 25 12  1  0
 23 18  1  0
M  CHG  1  15   1
M  END
> <Identifier>
FENTANYL

> <hERG>
1

$$$$

     RDKit          2D

 36 40  0  0  0  0  0  0  0  0999 V2000
  -11.6071    0.8628    0.0000 C   0  0  0  0  0  0  0  0  0  0  0  0
  -10.6630   -0.3028    0.0000 C   0  0  0  0  0  0  0  0  0  0  0  0
  -11.2004   -1.7033    0.0000 O   0  0  0  0  0  0  0  0  0  0  0  0
   -9.1815   -0.0680    0.0000 N   0  0  0  0  0  0  0  0  0  0  0  0
   -8.6440    1.3324    0.0000 C   0  0  0  0  0  0  0  0  0  0  0  0
   -7.1625    1.5672    0.0000 C   0  0  0  0  0  0  0  0  0  0  0  0
   -6.2184    0.4016    0.0000 N   0  0  0  0  0  0  0  0  0  0  0  0
   -4.7369    0.6364    0.0000 C   0  0  0  0  0  0  0  0  0  0  0  0
   -3.7928   -0.5292    0.0000 C   0  0  0  0  0  0  0  0  0  0  0  0
   -2.3113   -0.2944    0.0000 C   0  0  0  0  0  0  0  0  0  0  0  0
   -1.7739    1.1060    0.0000 C   0  0  0  0  0  0  0  0  0  0  0  0
   -0.2924    1.3408    0.0000 O   0  0  0  0  0  0  0  0  0  0  0  0
    0.6517    0.1752    0.0000 C   0  0  0  0  0  0  0  0  0  0  0  0
    2.1332    0.4100    0.0000 C   0  0  0  0  0  0  0  0  0  0  0  0
    2.8141    1.7466    0.0000 C   0  0  0  0  0  0  0  0  0  0  0  0
    4.2956    1.5121    0.0000 O   0  0  0  0  0  0  0  0  0  0  0  0
    4.5304    0.0306    0.0000 C   0  0  0  0  0  0  0  0  0  0  0  0
    5.0681   -1.3697    0.0000 C   0  0  0  0  0  0  0  0  0  0  0  0
    4.1243   -2.5355    0.0000 N   0  0  0  0  0  0  0  0  0  0  0  0
    4.5126   -3.9844    0.0000 C   0  0  0  0  0  0  0  0  0  0  0  0
    3.2547   -4.8015    0.0000 C   0  0  0  0  0  0  0  0  0  0  0  0
    2.0889   -3.8576    0.0000 N   0  0  0  0  0  0  0  0  0  0  0  0
    2.6263   -2.4572    0.0000 C   0  0  0  0  0  0  0  0  0  0  0  0
    5.9793    0.4190    0.0000 C   0  0  0  0  0  0  0  0  0  0  0  0
    7.0400   -0.6416    0.0000 C   0  0  0  0  0  0  0  0  0  0  0  0
    8.4889   -0.2532    0.0000 C   0  0  0  0  0  0  0  0  0  0  0  0
    8.8770    1.1957    0.0000 C   0  0  0  0  0  0  0  0  0  0  0  0
   10.3258    1.5841    0.0000 Cl  0  0  0  0  0  0  0  0  0  0  0  0
    7.8162    2.2563    0.0000 C   0  0  0  0  0  0  0  0  0  0  0  0
    6.3673    1.8679    0.0000 C   0  0  0  0  0  0  0  0  0  0  0  0
    5.3066    2.9284    0.0000 Cl  0  0  0  0  0  0  0  0  0  0  0  0
    3.1940   -0.6505    0.0000 O   0  0  0  0  0  0  0  0  0  0  0  0
   -2.7180    2.2716    0.0000 C   0  0  0  0  0  0  0  0  0  0  0  0
   -4.1995    2.0368    0.0000 C   0  0  0  0  0  0  0  0  0  0  0  0
   -6.7558   -0.9988    0.0000 C   0  0  0  0  0  0  0  0  0  0  0  0
   -8.2373   -1.2337    0.0000 C   0  0  0  0  0  0  0  0  0  0  0  0
  1  2  1  0
  2  3  2  0
  2  4  1  0
  4  5  1  0
  5  6  1  0
  6  7  1  0
  7  8  1  0
  8  9  2  0
  9 10  1  0
 10 11  2  0
 11 12  1  0
 12 13  1  0
 14 13  1  6
 14 15  1  0
 15 16  1  0
 16 17  1  0
 17 18  1  1
 18 19  1  0
 19 20  1  0
 20 21  2  0
 21 22  1  0
 22 23  2  0
 17 24  1  0
 24 25  2  0
 25 26  1  0
 26 27  2  0
 27 28  1  0
 27 29  1  0
 29 30  2  0
 30 31  1  0
 17 32  1  0
 11 33  1  0
 33 34  2  0
  7 35  1  0
 35 36  1  0
 36  4  1  0
 34  8  1  0
 32 14  1  0
 23 19  1  0
 30 24  1  0
M  END
> <Identifier>
KETOCONAZOLE

> <hERG>
1

$$$$

     RDKit          2D

 21 23  0  0  0  0  0  0  0  0999 V2000
    4.0612    4.2404    0.0000 C   0  0  0  0  0  0  0  0  0  0  0  0
    2.8390    3.3708    0.0000 C   0  0  0  0  0  0  0  0  0  0  0  0
    2.9810    1.8775    0.0000 C   0  0  0  0  0  0  0  0  0  0  0  0
    4.3452    1.2538    0.0000 O   0  0  0  0  0  0  0  0  0  0  0  0
    1.7588    1.0079    0.0000 C   0  0  0  0  0  0  0  0  0  0  0  0
    0.3368    1.4856    0.0000 C   0  0  0  0  0  0  0  0  0  0  0  0
   -0.5568    0.2809    0.0000 N   0  0  0  0  0  0  0  0  0  0  0  0
   -2.0568    0.2958    0.0000 C   0  0  0  0  0  0  0  0  0  0  0  0
   -2.7938    1.6022    0.0000 C   0  0  0  0  0  0  0  0  0  0  0  0
   -4.2938    1.6171    0.0000 C   0  0  0  0  0  0  0  0  0  0  0  0
   -5.0566    0.3256    0.0000 C   0  0  0  0  0  0  0  0  0  0  0  0
   -6.5565    0.3405    0.0000 F   0  0  0  0  0  0  0  0  0  0  0  0
   -4.3196   -0.9808    0.0000 C   0  0  0  0  0  0  0  0  0  0  0  0
   -2.8196   -0.9957    0.0000 C   0  0  0  0  0  0  0  0  0  0  0  0
    0.3127   -0.9413    0.0000 C   0  0  0  0  0  0  0  0  0  0  0  0
   -0.0137   -2.4054    0.0000 C   0  0  0  0  0  0  0  0  0  0  0  0
    1.0910   -3.4201    0.0000 C   0  0  0  0  0  0  0  0  0  0  0  0
    2.5221   -2.9707    0.0000 C   0  0  0  0  0  0  0  0  0  0  0  0
    3.6268   -3.9855    0.0000 Cl  0  0  0  0  0  0  0  0  0  0  0  0
    2.8486   -1.5067    0.0000 C   0  0  0  0  0  0  0  0  0  0  0  0
    1.7439   -0.4920    0.0000 C   0  0  0  0  0  0  0  0  0  0  0  0
  1  2  1  0
  2  3  1  0
  3  4  2  0
  3  5  1  0
  5  6  2  0
  6  7  1  0
  7  8  1  0
  8  9  2  0
  9 10  1  0
 10 11  2  0
 11 12  1  0
 11 13  1  0
 13 14  2  0
  7 15  1  0
 15 16  2  0
 16 17  1  0
 17 18  2  0
 18 19  1  0
 18 20  1  0
 20 21  2  0
 21  5  1  0
 14  8  1  0
 21 15  1  0
M  END
> <Identifier>
BMCL20031829_19

> <hERG>
1

$$$$

     RDKit          2D

 28 31  0  0  0  0  0  0  0  0999 V2000
   -8.1135    0.3351    0.0000 C   0  0  0  0  0  0  0  0  0  0  0  0
   -7.1427   -0.8083    0.0000 O   0  0  0  0  0  0  0  0  0  0  0  0
   -5.6670   -0.5393    0.0000 C   0  0  0  0  0  0  0  0  0  0  0  0
   -5.1622    0.8732    0.0000 C   0  0  0  0  0  0  0  0  0  0  0  0
   -3.6865    1.1423    0.0000 C   0  0  0  0  0  0  0  0  0  0  0  0
   -2.7157   -0.0011    0.0000 C   0  0  0  0  0  0  0  0  0  0  0  0
   -3.2205   -1.4136    0.0000 C   0  0  0  0  0  0  0  0  0  0  0  0
   -4.6962   -1.6827    0.0000 C   0  0  0  0  0  0  0  0  0  0  0  0
   -5.2010   -3.0952    0.0000 O   0  0  0  0  0  0  0  0  0  0  0  0
   -4.2301   -4.2386    0.0000 C   0  0  0  0  0  0  0  0  0  0  0  0
   -1.3282    0.5688    0.0000 C   0  0  0  0  0  0  0  0  0  0  0  0
   -0.0515   -0.2186    0.0000 O   0  0  0  0  0  0  0  0  0  0  0  0
   -1.4415    2.0646    0.0000 C   0  0  0  0  0  0  0  0  0  0  0  0
   -0.2981    3.0354    0.0000 C   0  0  0  0  0  0  0  0  0  0  0  0
    1.1144    2.5306    0.0000 C   0  0  0  0  0  0  0  0  0  0  0  0
    1.3835    1.0549    0.0000 C   0  0  0  0  0  0  0  0  0  0  0  0
    2.7960    0.5501    0.0000 C   0  0  0  0  0  0  0  0  0  0  0  0
    3.9394    1.5209    0.0000 N   0  0  0  0  0  4  0  0  0  0  0  0
    5.3519    1.0161    0.0000 C   0  0  0  0  0  0  0  0  0  0  0  0
    5.6210   -0.4596    0.0000 C   0  0  0  0  0  0  0  0  0  0  0  0
    4.4775   -1.4304    0.0000 C   0  0  0  0  0  0  0  0  0  0  0  0
    4.7466   -2.9061    0.0000 C   0  0  0  0  0  0  0  0  0  0  0  0
    6.1591   -3.4109    0.0000 C   0  0  0  0  0  0  0  0  0  0  0  0
    7.3025   -2.4401    0.0000 C   0  0  0  0  0  0  0  0  0  0  0  0
    7.0335   -0.9644    0.0000 C   0  0  0  0  0  0  0  0  0  0  0  0
    3.6704    2.9966    0.0000 C   0  0  0  0  0  0  0  0  0  0  0  0
    2.2579    3.5014    0.0000 C   0  0  0  0  0  0  0  0  0  0  0  0
   -2.8990    2.4190    0.0000 C   0  0  0  0  0  0  0  0  0  0  0  0
  1  2  1  0
  2  3  1  0
  3  4  2  0
  4  5  1  0
  5  6  2  0
  6  7  1  0
  7  8  2  0
  8  9  1  0
  9 10  1  0
  6 11  1  0
 11 12  2  0
 11 13  1  0
 13 14  1  6
 14 15  1  0
 15 16  1  0
 16 17  1  0
 17 18  1  0
 18 19  1  0
 19 20  1  0
 20 21  2  0
 21 22  1  0
 22 23  2  0
 23 24  1  0
 24 25  2  0
 18 26  1  0
 26 27  1  0
 13 28  1  0
  8  3  1  0
 27 15  1  0
 28  5  1  0
 25 20  1  0
M  CHG  1  18   1
M  END
> <Identifier>
DONEPEZIL

> <hERG>
1

$$$$

     RDKit          2D

 37 41  0  0  0  0  0  0  0  0999 V2000
   -1.5932   -2.6499    0.0000 O   0  0  0  0  0  0  0  0  0  0  0  0
   -2.5464   -1.4917    0.0000 C   0  0  0  0  0  0  0  0  0  0  0  0
   -4.0260   -1.7380    0.0000 C   0  0  0  0  0  0  0  0  0  0  0  0
   -4.9791   -0.5797    0.0000 N   0  0  0  0  0  0  0  0  0  0  0  0
   -6.4588   -0.8261    0.0000 C   0  0  0  0  0  0  0  0  0  0  0  0
   -7.4119    0.3322    0.0000 C   0  0  0  0  0  0  0  0  0  0  0  0
   -8.8916    0.0859    0.0000 C   0  0  0  0  0  0  0  0  0  0  0  0
   -9.8447    1.2441    0.0000 C   0  0  0  0  0  0  0  0  0  0  0  0
  -11.3243    0.9978    0.0000 C   0  0  0  0  0  0  0  0  0  0  0  0
  -11.8508   -0.4068    0.0000 C   0  0  0  0  0  0  0  0  0  0  0  0
  -13.3305   -0.6531    0.0000 F   0  0  0  0  0  0  0  0  0  0  0  0
  -10.8977   -1.5650    0.0000 C   0  0  0  0  0  0  0  0  0  0  0  0
   -9.4181   -1.3187    0.0000 C   0  0  0  0  0  0  0  0  0  0  0  0
   -4.4526    0.8248    0.0000 C   0  0  0  0  0  0  0  0  0  0  0  0
   -2.9730    1.0711    0.0000 C   0  0  0  0  0  0  0  0  0  0  0  0
   -2.0199   -0.0871    0.0000 N   0  0  0  0  0  0  0  0  0  0  0  0
   -0.5402    0.1592    0.0000 C   0  0  0  0  0  0  0  0  0  0  0  0
    0.4129   -0.9990    0.0000 C   0  0  0  0  0  0  0  0  0  0  0  0
    1.8925   -0.7527    0.0000 C   0  0  0  0  0  0  0  0  0  0  0  0
    2.4190    0.6519    0.0000 C   0  0  0  0  0  0  0  0  0  0  0  0
    3.8987    0.8982    0.0000 C   0  0  0  0  0  0  0  0  0  0  0  0
    4.4252    2.3027    0.0000 C   0  0  0  0  0  0  0  0  0  0  0  0
    5.9048    2.5491    0.0000 C   0  0  0  0  0  0  0  0  0  0  0  0
    6.8580    1.3908    0.0000 N   0  0  0  0  0  0  0  0  0  0  0  0
    6.3315   -0.0138    0.0000 C   0  0  0  0  0  0  0  0  0  0  0  0
    7.2846   -1.1720    0.0000 C   0  0  0  0  0  0  0  0  0  0  0  0
    8.7642   -0.9257    0.0000 C   0  0  0  0  0  0  0  0  0  0  0  0
    9.7174   -2.0839    0.0000 C   0  0  0  0  0  0  0  0  0  0  0  0
   10.6705   -3.2422    0.0000 F   0  0  0  0  0  0  0  0  0  0  0  0
    8.5591   -3.0371    0.0000 F   0  0  0  0  0  0  0  0  0  0  0  0
   10.8756   -1.1308    0.0000 F   0  0  0  0  0  0  0  0  0  0  0  0
    9.2907    0.4789    0.0000 C   0  0  0  0  0  0  0  0  0  0  0  0
    8.3376    1.6371    0.0000 C   0  0  0  0  0  0  0  0  0  0  0  0
    3.4720    3.4610    0.0000 C   0  0  0  0  0  0  0  0  0  0  0  0
    1.9924    3.2147    0.0000 C   0  0  0  0  0  0  0  0  0  0  0  0
    1.4659    1.8101    0.0000 C   0  0  0  0  0  0  0  0  0  0  0  0
   -0.0137    1.5638    0.0000 C   0  0  0  0  0  0  0  0  0  0  0  0
  1  2  2  0
  2  3  1  0
  3  4  1  0
  4  5  1  0
  5  6  1  0
  6  7  1  0
  7  8  2  0
  8  9  1  0
  9 10  2  0
 10 11  1  0
 10 12  1  0
 12 13  2  0
  4 14  1  0
 14 15  1  0
 15 16  1  0
 17 16  1  6
 17 18  1  0
 18 19  1  0
 19 20  1  0
 20 21  2  0
 21 22  1  0
 22 23  1  0
 23 24  1  0
 24 25  1  0
 25 26  1  0
 26 27  1  0
 27 28  1  0
 28 29  1  0
 28 30  1  0
 28 31  1  0
 27 32  1  0
 32 33  1  0
 22 34  2  0
 34 35  1  0
 35 36  2  0
 36 37  1  0
 16  2  1  0
 37 17  1  0
 13  7  1  0
 36 20  1  0
 33 24  1  0
M  END
> <Identifier>
AMINOMETHYL TETRAHYDRONAPHTHALENE KETOPIPERAZINE 4A

> <hERG>
1

$$$$

     RDKit          2D

 28 29  0  0  0  0  0  0  0  0999 V2000
   -4.0579   -4.1301    0.0000 C   0  0  0  0  0  0  0  0  0  0  0  0
   -2.6178   -3.7105    0.0000 C   0  0  0  0  0  0  0  0  0  0  0  0
   -2.2611   -2.2535    0.0000 O   0  0  0  0  0  0  0  0  0  0  0  0
   -0.8210   -1.8339    0.0000 C   0  0  0  0  0  0  0  0  0  0  0  0
    0.2625   -2.8713    0.0000 O   0  0  0  0  0  0  0  0  0  0  0  0
   -0.4643   -0.3769    0.0000 C   0  0  0  0  0  0  0  0  0  0  0  0
   -1.5478    0.6605    0.0000 C   0  0  0  0  0  0  0  0  0  0  0  0
   -2.9879    0.2408    0.0000 C   0  0  0  0  0  0  0  0  0  0  0  0
   -4.0714    1.2782    0.0000 O   0  0  0  0  0  0  0  0  0  0  0  0
   -5.5115    0.8586    0.0000 C   0  0  0  0  0  0  0  0  0  0  0  0
   -6.5949    1.8960    0.0000 C   0  0  0  0  0  0  0  0  0  0  0  0
   -8.0350    1.4764    0.0000 N   0  0  0  0  0  4  0  0  0  0  0  0
   -1.1911    2.1174    0.0000 N   0  0  0  0  0  0  0  0  0  0  0  0
    0.2490    2.5370    0.0000 C   0  0  0  0  0  0  0  0  0  0  0  0
    0.6057    3.9940    0.0000 C   0  0  0  0  0  0  0  0  0  0  0  0
    1.3324    1.4997    0.0000 C   0  0  0  0  0  0  0  0  0  0  0  0
    2.7726    1.9193    0.0000 C   0  0  0  0  0  0  0  0  0  0  0  0
    3.5611    1.3304    0.0000 O   0  0  0  0  0  0  0  0  0  0  0  0
    3.1292    3.3763    0.0000 O   0  0  0  0  0  0  0  0  0  0  0  0
    4.5693    3.7959    0.0000 C   0  0  0  0  0  0  0  0  0  0  0  0
    0.9758    0.0427    0.0000 C   0  0  0  0  0  0  0  0  0  0  0  0
    2.0592   -0.9947    0.0000 C   0  0  0  0  0  0  0  0  0  0  0  0
    1.7026   -2.4517    0.0000 C   0  0  0  0  0  0  0  0  0  0  0  0
    2.7860   -3.4890    0.0000 C   0  0  0  0  0  0  0  0  0  0  0  0
    4.2261   -3.0694    0.0000 C   0  0  0  0  0  0  0  0  0  0  0  0
    4.5828   -1.6124    0.0000 C   0  0  0  0  0  0  0  0  0  0  0  0
    3.4993   -0.5751    0.0000 C   0  0  0  0  0  0  0  0  0  0  0  0
    3.8481    0.3452    0.0000 Cl  0  0  0  0  0  0  0  0  0  0  0  0
  1  2  1  0
  2  3  1  0
  3  4  1  0
  4  5  2  0
  4  6  1  0
  6  7  2  0
  7  8  1  0
  8  9  1  0
  9 10  1  0
 10 11  1  0
 11 12  1  0
  7 13  1  0
 13 14  1  0
 14 15  1  0
 14 16  2  0
 16 17  1  0
 17 18  2  0
 17 19  1  0
 19 20  1  0
 16 21  1  0
 21 22  1  1
 22 23  2  0
 23 24  1  0
 24 25  2  0
 25 26  1  0
 26 27  2  0
 27 28  1  0
 21  6  1  0
 27 22  1  0
M  CHG  1  12   1
M  END
> <Identifier>
AMLODIPINE

> <hERG>
1

$$$$

     RDKit          2D

 22 24  0  0  0  0  0  0  0  0999 V2000
    2.2410    3.6154    0.0000 C   0  0  0  0  0  0  0  0  0  0  0  0
    1.5972    2.2606    0.0000 O   0  0  0  0  0  0  0  0  0  0  0  0
    2.4486    1.0256    0.0000 C   0  0  0  0  0  0  0  0  0  0  0  0
    3.9438    1.1455    0.0000 C   0  0  0  0  0  0  0  0  0  0  0  0
    4.7952   -0.0895    0.0000 C   0  0  0  0  0  0  0  0  0  0  0  0
    6.2904    0.0304    0.0000 N   0  0  0  0  0  0  0  0  0  0  0  0
    4.1514   -1.4443    0.0000 C   0  0  0  0  0  0  0  0  0  0  0  0
    5.0028   -2.6792    0.0000 Cl  0  0  0  0  0  0  0  0  0  0  0  0
    2.6562   -1.5642    0.0000 C   0  0  0  0  0  0  0  0  0  0  0  0
    1.8048   -0.3292    0.0000 C   0  0  0  0  0  0  0  0  0  0  0  0
    0.3096   -0.4491    0.0000 C   0  0  0  0  0  0  0  0  0  0  0  0
   -0.3342   -1.8039    0.0000 O   0  0  0  0  0  0  0  0  0  0  0  0
   -0.5418    0.7859    0.0000 N   0  0  0  0  0  0  0  0  0  0  0  0
   -2.0370    0.6660    0.0000 C   0  0  0  0  0  0  0  0  0  0  0  0
   -2.8884    1.9010    0.0000 C   0  0  0  0  0  0  0  0  0  0  0  0
   -4.3836    1.7811    0.0000 C   0  0  0  0  0  0  0  0  0  0  0  0
   -5.0274    0.4263    0.0000 N   0  0  0  0  0  4  0  0  0  0  0  0
   -5.6712   -0.9285    0.0000 C   0  0  0  0  0  0  0  0  0  0  0  0
   -4.8198   -2.1635    0.0000 C   0  0  0  0  0  0  0  0  0  0  0  0
   -3.3246   -2.0436    0.0000 C   0  0  0  0  0  0  0  0  0  0  0  0
   -2.6808   -0.6888    0.0000 C   0  0  0  0  0  0  0  0  0  0  0  0
   -3.5322    0.5461    0.0000 C   0  0  0  0  0  0  0  0  0  0  0  0
  1  2  1  0
  2  3  1  0
  3  4  2  0
  4  5  1  0
  5  6  1  0
  5  7  2  0
  7  8  1  0
  7  9  1  0
  9 10  2  0
 10 11  1  0
 11 12  2  0
 11 13  1  0
 14 13  1  6
 14 15  1  0
 15 16  1  0
 16 17  1  0
 17 18  1  0
 18 19  1  0
 19 20  1  0
 21 20  1  1
 21 22  1  0
 10  3  1  0
 21 14  1  0
 22 17  1  0
M  CHG  1  17   1
M  END
> <Identifier>
RENZAPRIDE

> <hERG>
1

$$$$

     RDKit          2D

 25 27  0  0  0  0  0  0  0  0999 V2000
   -7.6640   -0.4144    0.0000 Cl  0  0  0  0  0  0  0  0  0  0  0  0
   -6.2138   -0.0309    0.0000 C   0  0  0  0  0  0  0  0  0  0  0  0
   -5.8209    1.4168    0.0000 C   0  0  0  0  0  0  0  0  0  0  0  0
   -4.3707    1.8003    0.0000 C   0  0  0  0  0  0  0  0  0  0  0  0
   -3.3135    0.7362    0.0000 C   0  0  0  0  0  0  0  0  0  0  0  0
   -1.8634    1.1197    0.0000 C   0  0  0  0  0  0  0  0  0  0  0  0
   -0.8062    0.0555    0.0000 O   0  0  0  0  0  0  0  0  0  0  0  0
    0.6440    0.4390    0.0000 C   0  0  0  0  0  0  0  0  0  0  0  0
    1.0369    1.8867    0.0000 C   0  0  0  0  0  0  0  0  0  0  0  0
    2.4871    2.2702    0.0000 N   0  0  0  0  0  0  0  0  0  0  0  0
    3.0292    3.6688    0.0000 C   0  0  0  0  0  0  0  0  0  0  0  0
    4.5269    3.5854    0.0000 C   0  0  0  0  0  0  0  0  0  0  0  0
    4.9104    2.1352    0.0000 N   0  0  0  0  0  0  0  0  0  0  0  0
    3.6497    1.3224    0.0000 C   0  0  0  0  0  0  0  0  0  0  0  0
    1.7012   -0.6251    0.0000 C   0  0  0  0  0  0  0  0  0  0  0  0
    3.1513   -0.2416    0.0000 C   0  0  0  0  0  0  0  0  0  0  0  0
    4.2085   -1.3057    0.0000 C   0  0  0  0  0  0  0  0  0  0  0  0
    3.8155   -2.7533    0.0000 C   0  0  0  0  0  0  0  0  0  0  0  0
    4.8727   -3.8174    0.0000 Cl  0  0  0  0  0  0  0  0  0  0  0  0
    2.3654   -3.1368    0.0000 C   0  0  0  0  0  0  0  0  0  0  0  0
    1.3082   -2.0727    0.0000 C   0  0  0  0  0  0  0  0  0  0  0  0
   -0.1419   -2.4562    0.0000 Cl  0  0  0  0  0  0  0  0  0  0  0  0
   -3.7065   -0.7115    0.0000 C   0  0  0  0  0  0  0  0  0  0  0  0
   -2.6493   -1.7756    0.0000 Cl  0  0  0  0  0  0  0  0  0  0  0  0
   -5.1566   -1.0950    0.0000 C   0  0  0  0  0  0  0  0  0  0  0  0
  1  2  1  0
  2  3  2  0
  3  4  1  0
  4  5  2  0
  5  6  1  0
  6  7  1  0
  7  8  1  0
  8  9  1  1
  9 10  1  0
 10 11  1  0
 11 12  2  0
 12 13  1  0
 13 14  2  0
  8 15  1  0
 15 16  2  0
 16 17  1  0
 17 18  2  0
 18 19  1  0
 18 20  1  0
 20 21  2  0
 21 22  1  0
  5 23  1  0
 23 24  1  0
 23 25  2  0
 25  2  1  0
 14 10  1  0
 21 15  1  0
M  END
> <Identifier>
MICONAZOLE

> <hERG>
1

$$$$

     RDKit          2D

 23 26  0  0  0  0  0  0  0  0999 V2000
    1.7210    2.8812    0.0000 F   0  0  0  0  0  0  0  0  0  0  0  0
    0.2223    2.8185    0.0000 C   0  0  0  0  0  0  0  0  0  0  0  0
   -0.5814    4.0850    0.0000 C   0  0  0  0  0  0  0  0  0  0  0  0
   -2.0801    4.0223    0.0000 C   0  0  0  0  0  0  0  0  0  0  0  0
   -2.7751    2.6930    0.0000 N   0  0  0  0  0  4  0  0  0  0  0  0
   -1.9714    1.4265    0.0000 C   0  0  0  0  0  0  0  0  0  0  0  0
   -0.4727    1.4892    0.0000 C   0  0  0  0  0  0  0  0  0  0  0  0
    0.3310    0.2227    0.0000 C   0  0  0  0  0  0  0  0  0  0  0  0
   -0.2213   -1.1720    0.0000 C   0  0  0  0  0  0  0  0  0  0  0  0
   -1.6741   -1.5449    0.0000 C   0  0  0  0  0  0  0  0  0  0  0  0
   -2.0776   -2.9897    0.0000 C   0  0  0  0  0  0  0  0  0  0  0  0
   -3.5305   -3.3626    0.0000 C   0  0  0  0  0  0  0  0  0  0  0  0
   -4.5799   -2.2909    0.0000 C   0  0  0  0  0  0  0  0  0  0  0  0
   -4.1765   -0.8462    0.0000 C   0  0  0  0  0  0  0  0  0  0  0  0
   -2.7236   -0.4732    0.0000 C   0  0  0  0  0  0  0  0  0  0  0  0
    0.9345   -2.1281    0.0000 N   0  0  0  0  0  0  0  0  0  0  0  0
    2.2010   -1.3245    0.0000 C   0  0  0  0  0  0  0  0  0  0  0  0
    3.6457   -1.7279    0.0000 C   0  0  0  0  0  0  0  0  0  0  0  0
    4.0187   -3.1808    0.0000 Cl  0  0  0  0  0  0  0  0  0  0  0  0
    4.7175   -0.6784    0.0000 C   0  0  0  0  0  0  0  0  0  0  0  0
    4.3445    0.7744    0.0000 C   0  0  0  0  0  0  0  0  0  0  0  0
    2.8998    1.1779    0.0000 C   0  0  0  0  0  0  0  0  0  0  0  0
    1.8280    0.1284    0.0000 C   0  0  0  0  0  0  0  0  0  0  0  0
  2  1  1  6
  2  3  1  0
  3  4  1  0
  4  5  1  0
  5  6  1  0
  6  7  1  0
  7  8  1  6
  8  9  2  0
  9 10  1  0
 10 11  2  0
 11 12  1  0
 12 13  2  0
 13 14  1  0
 14 15  2  0
  9 16  1  0
 16 17  1  0
 17 18  2  0
 18 19  1  0
 18 20  1  0
 20 21  2  0
 21 22  1  0
 22 23  2  0
  7  2  1  0
 23  8  1  0
 15 10  1  0
 23 17  1  0
M  CHG  1   5   1
M  END
> <Identifier>
WOMBAT55

> <hERG>
1

$$$$

     RDKit          2D

 26 27  0  0  0  0  0  0  0  0999 V2000
    2.2377    3.4620    0.0000 C   0  0  0  0  0  0  0  0  0  0  0  0
    1.0472    2.5493    0.0000 C   0  0  0  0  0  0  0  0  0  0  0  0
    1.2424    1.0621    0.0000 C   0  0  0  0  0  0  0  0  0  0  0  0
    2.6280    0.4875    0.0000 O   0  0  0  0  0  0  0  0  0  0  0  0
    3.8184    1.4001    0.0000 C   0  0  0  0  0  0  0  0  0  0  0  0
    5.2040    0.8255    0.0000 C   0  0  0  0  0  0  0  0  0  0  0  0
    3.6232    2.8874    0.0000 O   0  0  0  0  0  0  0  0  0  0  0  0
    0.0520    0.1495    0.0000 C   0  0  0  0  0  0  0  0  0  0  0  0
   -0.8606    1.3399    0.0000 C   0  0  0  0  0  0  0  0  0  0  0  0
   -2.3479    1.1447    0.0000 C   0  0  0  0  0  0  0  0  0  0  0  0
   -3.2407   -0.0606    0.0000 C   0  0  0  0  0  0  0  0  0  0  0  0
   -3.2605    2.3351    0.0000 N   0  0  0  0  0  4  0  0  0  0  0  0
   -4.7478    2.1400    0.0000 C   0  0  0  0  0  0  0  0  0  0  0  0
   -2.6859    3.7207    0.0000 C   0  0  0  0  0  0  0  0  0  0  0  0
    0.9646   -1.0410    0.0000 C   0  0  0  0  0  0  0  0  0  0  0  0
    0.3900   -2.4265    0.0000 C   0  0  0  0  0  0  0  0  0  0  0  0
    1.3027   -3.6170    0.0000 C   0  0  0  0  0  0  0  0  0  0  0  0
    2.7899   -3.4218    0.0000 C   0  0  0  0  0  0  0  0  0  0  0  0
    3.3645   -2.0362    0.0000 C   0  0  0  0  0  0  0  0  0  0  0  0
    2.4519   -0.8458    0.0000 C   0  0  0  0  0  0  0  0  0  0  0  0
   -1.1384   -0.7632    0.0000 C   0  0  0  0  0  0  0  0  0  0  0  0
   -0.9433   -2.2504    0.0000 C   0  0  0  0  0  0  0  0  0  0  0  0
   -2.1337   -3.1631    0.0000 C   0  0  0  0  0  0  0  0  0  0  0  0
   -3.5193   -2.5885    0.0000 C   0  0  0  0  0  0  0  0  0  0  0  0
   -3.7144   -1.1012    0.0000 C   0  0  0  0  0  0  0  0  0  0  0  0
   -2.5240   -0.1886    0.0000 C   0  0  0  0  0  0  0  0  0  0  0  0
  1  2  1  0
  3  2  1  1
  3  4  1  0
  4  5  1  0
  5  6  1  0
  5  7  2  0
  3  8  1  0
  8  9  1  0
  9 10  1  0
 10 11  1  1
 10 12  1  0
 12 13  1  0
 12 14  1  0
  8 15  1  0
 15 16  2  0
 16 17  1  0
 17 18  2  0
 18 19  1  0
 19 20  2  0
  8 21  1  0
 21 22  2  0
 22 23  1  0
 23 24  2  0
 24 25  1  0
 25 26  2  0
 20 15  1  0
 26 21  1  0
M  CHG  1  12   1
M  END
> <Identifier>
LAAM

> <hERG>
1

$$$$

     RDKit          2D

 26 28  0  0  0  0  0  0  0  0999 V2000
   -3.4717   -2.9402    0.0000 C   0  0  0  0  0  0  0  0  0  0  0  0
   -2.9913   -1.5192    0.0000 C   0  0  0  0  0  0  0  0  0  0  0  0
   -2.5109   -0.0982    0.0000 C   0  0  0  0  0  0  0  0  0  0  0  0
   -4.4123   -1.0388    0.0000 C   0  0  0  0  0  0  0  0  0  0  0  0
   -5.5388   -2.0292    0.0000 N   0  0  0  0  0  0  0  0  0  0  0  0
   -1.5703   -1.9996    0.0000 C   0  0  0  0  0  0  0  0  0  0  0  0
   -1.2759   -3.4704    0.0000 O   0  0  0  0  0  0  0  0  0  0  0  0
   -0.4438   -1.0092    0.0000 N   0  0  0  0  0  0  0  0  0  0  0  0
    1.0196   -1.3384    0.0000 C   0  0  0  0  0  0  0  0  0  0  0  0
    1.7850   -0.0484    0.0000 C   0  0  0  0  0  0  0  0  0  0  0  0
    3.2785    0.0907    0.0000 C   0  0  0  0  0  0  0  0  0  0  0  0
    4.1458   -1.1332    0.0000 C   0  0  0  0  0  0  0  0  0  0  0  0
    5.6393   -0.9941    0.0000 C   0  0  0  0  0  0  0  0  0  0  0  0
    6.5065   -2.2180    0.0000 F   0  0  0  0  0  0  0  0  0  0  0  0
    6.2656    0.3689    0.0000 C   0  0  0  0  0  0  0  0  0  0  0  0
    5.3984    1.5928    0.0000 C   0  0  0  0  0  0  0  0  0  0  0  0
    3.9048    1.4537    0.0000 C   0  0  0  0  0  0  0  0  0  0  0  0
    3.0376    2.6776    0.0000 F   0  0  0  0  0  0  0  0  0  0  0  0
    0.7946    1.0782    0.0000 C   0  0  0  0  0  0  0  0  0  0  0  0
   -0.5829    0.4844    0.0000 C   0  0  0  0  0  0  0  0  0  0  0  0
   -1.8729    1.2497    0.0000 C   0  0  0  0  0  0  0  0  0  0  0  0
   -1.8551    2.7496    0.0000 C   0  0  0  0  0  0  0  0  0  0  0  0
   -3.1452    3.5150    0.0000 C   0  0  0  0  0  0  0  0  0  0  0  0
   -4.4530    2.7804    0.0000 C   0  0  0  0  0  0  0  0  0  0  0  0
   -4.4708    1.2805    0.0000 C   0  0  0  0  0  0  0  0  0  0  0  0
   -3.1808    0.5152    0.0000 C   0  0  0  0  0  0  0  0  0  0  0  0
  1  2  1  0
  2  3  1  0
  2  4  1  0
  4  5  1  0
  2  6  1  0
  6  7  2  0
  6  8  1  0
  8  9  1  0
  9 10  1  0
 10 11  1  0
 11 12  2  0
 12 13  1  0
 13 14  1  0
 13 15  2  0
 15 16  1  0
 16 17  2  0
 17 18  1  0
 10 19  2  0
 19 20  1  0
 20 21  1  1
 21 22  2  0
 22 23  1  0
 23 24  2  0
 24 25  1  0
 25 26  2  0
 20  8  1  0
 26 21  1  0
 17 11  1  0
M  END
> <Identifier>
BMCL-16-2007-1777-16

> <hERG>
1

$$$$

     RDKit          2D

 21 23  0  0  0  0  0  0  0  0999 V2000
    4.0612    4.2404    0.0000 C   0  0  0  0  0  0  0  0  0  0  0  0
    2.8390    3.3708    0.0000 C   0  0  0  0  0  0  0  0  0  0  0  0
    2.9810    1.8775    0.0000 C   0  0  0  0  0  0  0  0  0  0  0  0
    4.3452    1.2538    0.0000 O   0  0  0  0  0  0  0  0  0  0  0  0
    1.7588    1.0079    0.0000 C   0  0  0  0  0  0  0  0  0  0  0  0
    0.3368    1.4856    0.0000 C   0  0  0  0  0  0  0  0  0  0  0  0
   -0.5568    0.2809    0.0000 N   0  0  0  0  0  0  0  0  0  0  0  0
   -2.0568    0.2958    0.0000 C   0  0  0  0  0  0  0  0  0  0  0  0
   -2.7938    1.6022    0.0000 C   0  0  0  0  0  0  0  0  0  0  0  0
   -4.2938    1.6171    0.0000 C   0  0  0  0  0  0  0  0  0  0  0  0
   -5.0566    0.3256    0.0000 C   0  0  0  0  0  0  0  0  0  0  0  0
   -6.5565    0.3405    0.0000 F   0  0  0  0  0  0  0  0  0  0  0  0
   -4.3196   -0.9808    0.0000 C   0  0  0  0  0  0  0  0  0  0  0  0
   -2.8196   -0.9957    0.0000 C   0  0  0  0  0  0  0  0  0  0  0  0
    0.3127   -0.9413    0.0000 C   0  0  0  0  0  0  0  0  0  0  0  0
   -0.0137   -2.4054    0.0000 C   0  0  0  0  0  0  0  0  0  0  0  0
    1.0910   -3.4201    0.0000 C   0  0  0  0  0  0  0  0  0  0  0  0
    2.5221   -2.9707    0.0000 C   0  0  0  0  0  0  0  0  0  0  0  0
    3.6268   -3.9855    0.0000 Cl  0  0  0  0  0  0  0  0  0  0  0  0
    2.8486   -1.5067    0.0000 C   0  0  0  0  0  0  0  0  0  0  0  0
    1.7439   -0.4920    0.0000 C   0  0  0  0  0  0  0  0  0  0  0  0
  1  2  1  0
  2  3  1  0
  3  4  1  1
  3  5  1  0
  5  6  2  0
  6  7  1  0
  7  8  1  0
  8  9  2  0
  9 10  1  0
 10 11  2  0
 11 12  1  0
 11 13  1  0
 13 14  2  0
  7 15  1  0
 15 16  2  0
 16 17  1  0
 17 18  2  0
 18 19  1  0
 18 20  1  0
 20 21  2  0
 21  5  1  0
 14  8  1  0
 21 15  1  0
M  END
> <Identifier>
BMCL20031829_21

> <hERG>
1

$$$$

     RDKit          2D

 38 43  0  0  0  0  0  0  0  0999 V2000
    8.4028    4.1435    0.0000 C   0  0  0  0  0  0  0  0  0  0  0  0
    7.3116    3.1143    0.0000 C   0  0  0  0  0  0  0  0  0  0  0  0
    7.5028    1.6266    0.0000 N   0  0  0  0  0  0  0  0  0  0  0  0
    6.1470    0.9850    0.0000 C   0  0  0  0  0  0  0  0  0  0  0  0
    5.1178    2.0762    0.0000 C   0  0  0  0  0  0  0  0  0  0  0  0
    5.8376    3.3922    0.0000 N   0  0  0  0  0  0  0  0  0  0  0  0
    3.6229    1.9519    0.0000 C   0  0  0  0  0  0  0  0  0  0  0  0
    2.7881    0.7057    0.0000 C   0  0  0  0  0  0  0  0  0  0  0  0
    3.2419   -0.7240    0.0000 N   0  0  0  0  0  0  0  0  0  0  0  0
    2.1507   -1.7532    0.0000 C   0  0  0  0  0  0  0  0  0  0  0  0
    2.4964   -3.2128    0.0000 O   0  0  0  0  0  0  0  0  0  0  0  0
    0.7138   -1.3228    0.0000 C   0  0  0  0  0  0  0  0  0  0  0  0
    0.3681    0.1368    0.0000 C   0  0  0  0  0  0  0  0  0  0  0  0
   -1.0689    0.5673    0.0000 C   0  0  0  0  0  0  0  0  0  0  0  0
   -2.1601   -0.4619    0.0000 C   0  0  0  0  0  0  0  0  0  0  0  0
   -3.5970   -0.0315    0.0000 N   0  0  0  0  0  0  0  0  0  0  0  0
   -3.9427    1.4281    0.0000 C   0  0  0  0  0  0  0  0  0  0  0  0
   -2.8515    2.4573    0.0000 O   0  0  0  0  0  0  0  0  0  0  0  0
   -5.3796    1.8586    0.0000 C   0  0  0  0  0  0  0  0  0  0  0  0
   -5.7253    3.3182    0.0000 C   0  0  0  0  0  0  0  0  0  0  0  0
   -7.1622    3.7486    0.0000 C   0  0  0  0  0  0  0  0  0  0  0  0
   -8.2534    2.7194    0.0000 C   0  0  0  0  0  0  0  0  0  0  0  0
   -7.9077    1.2598    0.0000 C   0  0  0  0  0  0  0  0  0  0  0  0
   -6.4708    0.8294    0.0000 C   0  0  0  0  0  0  0  0  0  0  0  0
   -6.1251   -0.6302    0.0000 C   0  0  0  0  0  0  0  0  0  0  0  0
   -7.2164   -1.6594    0.0000 C   0  0  0  0  0  0  0  0  0  0  0  0
   -6.8707   -3.1191    0.0000 C   0  0  0  0  0  0  0  0  0  0  0  0
   -5.4337   -3.5495    0.0000 C   0  0  0  0  0  0  0  0  0  0  0  0
   -4.3425   -2.5203    0.0000 C   0  0  0  0  0  0  0  0  0  0  0  0
   -4.6882   -1.0607    0.0000 C   0  0  0  0  0  0  0  0  0  0  0  0
   -1.8144   -1.9215    0.0000 C   0  0  0  0  0  0  0  0  0  0  0  0
   -0.3775   -2.3520    0.0000 C   0  0  0  0  0  0  0  0  0  0  0  0
    4.6426   -1.2606    0.0000 C   0  0  0  0  0  0  0  0  0  0  0  0
    4.6549   -2.7606    0.0000 C   0  0  0  0  0  0  0  0  0  0  0  0
    5.9600   -3.5000    0.0000 C   0  0  0  0  0  0  0  0  0  0  0  0
    7.2528   -2.7394    0.0000 C   0  0  0  0  0  0  0  0  0  0  0  0
    7.2406   -1.2394    0.0000 C   0  0  0  0  0  0  0  0  0  0  0  0
    5.9355   -0.5001    0.0000 C   0  0  0  0  0  0  0  0  0  0  0  0
  1  2  1  0
  2  3  2  0
  3  4  1  0
  4  5  2  0
  5  6  1  0
  5  7  1  0
  7  8  1  0
  8  9  1  0
  9 10  1  0
 10 11  2  0
 10 12  1  0
 12 13  2  0
 13 14  1  0
 14 15  2  0
 15 16  1  0
 16 17  1  0
 17 18  2  0
 17 19  1  0
 19 20  2  0
 20 21  1  0
 21 22  2  0
 22 23  1  0
 23 24  2  0
 24 25  1  0
 25 26  2  0
 26 27  1  0
 27 28  2  0
 28 29  1  0
 29 30  2  0
 15 31  1  0
 31 32  2  0
  9 33  1  0
 33 34  2  0
 34 35  1  0
 35 36  2  0
 36 37  1  0
 37 38  2  0
  6  2  1  0
 32 12  1  0
 38 33  1  0
 38  4  1  0
 24 19  1  0
 30 25  1  0
M  END
> <Identifier>
CONIVAPTAN

> <hERG>
1

$$$$

     RDKit          2D

 27 30  0  0  0  0  0  0  0  0999 V2000
    8.1768   -0.8224    0.0000 C   0  0  0  0  0  0  0  0  0  0  0  0
    7.1507    0.2717    0.0000 C   0  0  0  0  0  0  0  0  0  0  0  0
    5.6901   -0.0699    0.0000 O   0  0  0  0  0  0  0  0  0  0  0  0
    4.6639    1.0242    0.0000 C   0  0  0  0  0  0  0  0  0  0  0  0
    5.0984    2.4599    0.0000 O   0  0  0  0  0  0  0  0  0  0  0  0
    3.2034    0.6825    0.0000 N   0  0  0  0  0  0  0  0  0  0  0  0
    2.7689   -0.7532    0.0000 C   0  0  0  0  0  0  0  0  0  0  0  0
    1.3083   -1.0948    0.0000 C   0  0  0  0  0  0  0  0  0  0  0  0
    0.2822   -0.0007    0.0000 C   0  0  0  0  0  0  0  0  0  0  0  0
   -1.1784   -0.3424    0.0000 C   0  0  0  0  0  0  0  0  0  0  0  0
   -2.1199    0.8253    0.0000 C   0  0  0  0  0  0  0  0  0  0  0  0
   -1.3769    2.1284    0.0000 C   0  0  0  0  0  0  0  0  0  0  0  0
   -2.1339    3.4234    0.0000 C   0  0  0  0  0  0  0  0  0  0  0  0
   -3.6338    3.4153    0.0000 C   0  0  0  0  0  0  0  0  0  0  0  0
   -4.3908    4.7103    0.0000 Cl  0  0  0  0  0  0  0  0  0  0  0  0
   -4.3768    2.1123    0.0000 C   0  0  0  0  0  0  0  0  0  0  0  0
   -3.6199    0.8173    0.0000 C   0  0  0  0  0  0  0  0  0  0  0  0
   -4.5488   -0.3605    0.0000 C   0  0  0  0  0  0  0  0  0  0  0  0
   -4.2072   -1.8210    0.0000 C   0  0  0  0  0  0  0  0  0  0  0  0
   -2.8522   -2.4646    0.0000 C   0  0  0  0  0  0  0  0  0  0  0  0
   -2.9563   -3.9610    0.0000 C   0  0  0  0  0  0  0  0  0  0  0  0
   -1.7124   -4.7993    0.0000 C   0  0  0  0  0  0  0  0  0  0  0  0
   -0.3645   -4.1412    0.0000 C   0  0  0  0  0  0  0  0  0  0  0  0
   -0.2604   -2.6448    0.0000 N   0  0  0  0  0  0  0  0  0  0  0  0
   -1.5043   -1.8065    0.0000 C   0  0  0  0  0  0  0  0  0  0  0  0
    0.7166    1.4350    0.0000 C   0  0  0  0  0  0  0  0  0  0  0  0
    2.1772    1.7766    0.0000 C   0  0  0  0  0  0  0  0  0  0  0  0
  1  2  1  0
  2  3  1  0
  3  4  1  0
  4  5  2  0
  4  6  1  0
  6  7  1  0
  7  8  1  0
  8  9  1  0
  9 10  2  0
 10 11  1  0
 11 12  2  0
 12 13  1  0
 13 14  2  0
 14 15  1  0
 14 16  1  0
 16 17  2  0
 17 18  1  0
 18 19  1  0
 19 20  1  0
 20 21  2  0
 21 22  1  0
 22 23  2  0
 23 24  1  0
 24 25  2  0
  9 26  1  0
 26 27  1  0
 27  6  1  0
 25 10  1  0
 17 11  1  0
 25 20  1  0
M  END
> <Identifier>
LORATADINE

> <hERG>
1

$$$$

     RDKit          2D

 21 22  0  0  0  0  0  0  0  0999 V2000
   -6.2341   -1.3731    0.0000 N   0  0  0  0  0  0  0  0  0  0  0  0
   -4.8480   -0.7999    0.0000 C   0  0  0  0  0  0  0  0  0  0  0  0
   -3.6585   -1.7137    0.0000 C   0  0  0  0  0  0  0  0  0  0  0  0
   -2.2723   -1.1405    0.0000 C   0  0  0  0  0  0  0  0  0  0  0  0
   -1.0828   -2.0543    0.0000 O   0  0  0  0  0  0  0  0  0  0  0  0
    0.3033   -1.4811    0.0000 C   0  0  0  0  0  0  0  0  0  0  0  0
    1.4928   -2.3949    0.0000 C   0  0  0  0  0  0  0  0  0  0  0  0
    2.8790   -1.8217    0.0000 C   0  0  0  0  0  0  0  0  0  0  0  0
    3.0756   -0.3347    0.0000 C   0  0  0  0  0  0  0  0  0  0  0  0
    4.4618    0.2386    0.0000 C   0  0  0  0  0  0  0  0  0  0  0  0
    5.8479    0.8118    0.0000 F   0  0  0  0  0  0  0  0  0  0  0  0
    5.0350   -1.1476    0.0000 F   0  0  0  0  0  0  0  0  0  0  0  0
    3.8885    1.6247    0.0000 F   0  0  0  0  0  0  0  0  0  0  0  0
    1.8861    0.5792    0.0000 C   0  0  0  0  0  0  0  0  0  0  0  0
    0.5000    0.0059    0.0000 C   0  0  0  0  0  0  0  0  0  0  0  0
   -2.0757    0.3465    0.0000 C   0  0  0  0  0  0  0  0  0  0  0  0
   -0.6895    0.9198    0.0000 C   0  0  0  0  0  0  0  0  0  0  0  0
   -0.4929    2.4068    0.0000 C   0  0  0  0  0  0  0  0  0  0  0  0
   -1.6824    3.3206    0.0000 C   0  0  0  0  0  0  0  0  0  0  0  0
   -3.0685    2.7474    0.0000 C   0  0  0  0  0  0  0  0  0  0  0  0
   -3.2652    1.2604    0.0000 C   0  0  0  0  0  0  0  0  0  0  0  0
  1  2  1  0
  2  3  1  0
  4  3  1  1
  4  5  1  0
  5  6  1  0
  6  7  2  0
  7  8  1  0
  8  9  2  0
  9 10  1  0
 10 11  1  0
 10 12  1  0
 10 13  1  0
  9 14  1  0
 14 15  2  0
  4 16  1  0
 16 17  2  0
 17 18  1  0
 18 19  2  0
 19 20  1  0
 20 21  2  0
 15  6  1  0
 21 16  1  0
M  END
> <Identifier>
NORFLUOXETINE

> <hERG>
1

$$$$

     RDKit          2D

 21 23  0  0  0  0  0  0  0  0999 V2000
   -3.0808    3.2080    0.0000 C   0  0  0  0  0  0  0  0  0  0  0  0
   -2.8964    1.7194    0.0000 N   0  0  0  0  0  0  0  0  0  0  0  0
   -4.0934    0.8154    0.0000 C   0  0  0  0  0  0  0  0  0  0  0  0
   -3.9090   -0.6732    0.0000 C   0  0  0  0  0  0  0  0  0  0  0  0
   -2.5276   -1.2578    0.0000 C   0  0  0  0  0  0  0  0  0  0  0  0
   -2.3431   -2.7464    0.0000 C   0  0  0  0  0  0  0  0  0  0  0  0
   -0.9617   -3.3310    0.0000 C   0  0  0  0  0  0  0  0  0  0  0  0
    0.2352   -2.4270    0.0000 C   0  0  0  0  0  0  0  0  0  0  0  0
    0.0508   -0.9384    0.0000 C   0  0  0  0  0  0  0  0  0  0  0  0
   -1.3306   -0.3538    0.0000 C   0  0  0  0  0  0  0  0  0  0  0  0
   -1.5150    1.1348    0.0000 C   0  0  0  0  0  0  0  0  0  0  0  0
   -0.3180    2.0389    0.0000 C   0  0  0  0  0  0  0  0  0  0  0  0
    1.0633    1.4543    0.0000 C   0  0  0  0  0  0  0  0  0  0  0  0
    2.2603    2.3583    0.0000 C   0  0  0  0  0  0  0  0  0  0  0  0
    3.6417    1.7737    0.0000 C   0  0  0  0  0  0  0  0  0  0  0  0
    3.8261    0.2851    0.0000 C   0  0  0  0  0  0  0  0  0  0  0  0
    5.2075   -0.2995    0.0000 O   0  0  0  0  0  0  0  0  0  0  0  0
    2.6292   -0.6189    0.0000 C   0  0  0  0  0  0  0  0  0  0  0  0
    2.8136   -2.1076    0.0000 O   0  0  0  0  0  0  0  0  0  0  0  0
    1.2478   -0.0343    0.0000 C   0  0  0  0  0  0  0  0  0  0  0  0
    0.0000    4.2080    0.0000 Cl  0  0  0  0  0  0  0  0  0  0  0  0
  1  2  1  0
  2  3  1  0
  3  4  1  0
  4  5  1  0
  5  6  2  0
  6  7  1  0
  7  8  2  0
  8  9  1  0
  9 10  2  0
 10 11  1  0
 11 12  1  6
 12 13  1  0
 13 14  2  0
 14 15  1  0
 15 16  2  0
 16 17  1  0
 16 18  1  0
 18 19  1  0
 18 20  2  0
 11  2  1  0
 20 13  1  0
 10  5  1  0
 20  9  1  0
M  END
> <Identifier>
APOMORPHINE HYDROCHLORIDE

> <hERG>
1

$$$$

     RDKit          2D

 26 28  0  0  0  0  0  0  0  0999 V2000
   -2.9431   -5.1920    0.0000 C   0  0  0  0  0  0  0  0  0  0  0  0
   -3.0881   -3.6990    0.0000 C   0  0  0  0  0  0  0  0  0  0  0  0
   -4.4535   -3.0781    0.0000 C   0  0  0  0  0  0  0  0  0  0  0  0
   -1.8676   -2.8270    0.0000 C   0  0  0  0  0  0  0  0  0  0  0  0
   -0.5022   -3.4479    0.0000 N   0  0  0  0  0  0  0  0  0  0  0  0
   -2.0126   -1.3340    0.0000 C   0  0  0  0  0  0  0  0  0  0  0  0
   -3.3781   -0.7131    0.0000 O   0  0  0  0  0  0  0  0  0  0  0  0
   -0.7922   -0.4619    0.0000 N   0  0  0  0  0  0  0  0  0  0  0  0
    0.6307   -0.9367    0.0000 C   0  0  0  0  0  0  0  0  0  0  0  0
    1.5220    0.2698    0.0000 C   0  0  0  0  0  0  0  0  0  0  0  0
    3.0219    0.2579    0.0000 C   0  0  0  0  0  0  0  0  0  0  0  0
    3.7616   -1.0470    0.0000 C   0  0  0  0  0  0  0  0  0  0  0  0
    5.2616   -1.0588    0.0000 C   0  0  0  0  0  0  0  0  0  0  0  0
    6.0013   -2.3638    0.0000 F   0  0  0  0  0  0  0  0  0  0  0  0
    6.0218    0.2342    0.0000 C   0  0  0  0  0  0  0  0  0  0  0  0
    5.2821    1.5392    0.0000 C   0  0  0  0  0  0  0  0  0  0  0  0
    3.7822    1.5510    0.0000 C   0  0  0  0  0  0  0  0  0  0  0  0
    3.0425    2.8559    0.0000 F   0  0  0  0  0  0  0  0  0  0  0  0
    0.6499    1.4903    0.0000 C   0  0  0  0  0  0  0  0  0  0  0  0
   -0.7803    1.0380    0.0000 C   0  0  0  0  0  0  0  0  0  0  0  0
   -1.9868    1.9293    0.0000 C   0  0  0  0  0  0  0  0  0  0  0  0
   -1.8182    3.4198    0.0000 C   0  0  0  0  0  0  0  0  0  0  0  0
   -3.0248    4.3110    0.0000 C   0  0  0  0  0  0  0  0  0  0  0  0
   -4.3999    3.7117    0.0000 C   0  0  0  0  0  0  0  0  0  0  0  0
   -4.5684    2.2212    0.0000 C   0  0  0  0  0  0  0  0  0  0  0  0
   -3.3619    1.3300    0.0000 C   0  0  0  0  0  0  0  0  0  0  0  0
  1  2  1  0
  2  3  1  0
  2  4  1  0
  4  5  1  6
  4  6  1  0
  6  7  2  0
  6  8  1  0
  8  9  1  0
  9 10  1  0
 10 11  1  0
 11 12  2  0
 12 13  1  0
 13 14  1  0
 13 15  2  0
 15 16  1  0
 16 17  2  0
 17 18  1  0
 10 19  2  0
 19 20  1  0
 20 21  1  1
 21 22  2  0
 22 23  1  0
 23 24  2  0
 24 25  1  0
 25 26  2  0
 20  8  1  0
 26 21  1  0
 17 11  1  0
M  END
> <Identifier>
BMCL-16-2007-1777-17

> <hERG>
1

$$$$

     RDKit          2D

 26 27  0  0  0  0  0  0  0  0999 V2000
    2.2377    3.4620    0.0000 C   0  0  0  0  0  0  0  0  0  0  0  0
    1.0472    2.5493    0.0000 C   0  0  0  0  0  0  0  0  0  0  0  0
    1.2424    1.0621    0.0000 C   0  0  0  0  0  0  0  0  0  0  0  0
    2.6280    0.4875    0.0000 O   0  0  0  0  0  0  0  0  0  0  0  0
    3.8184    1.4001    0.0000 C   0  0  0  0  0  0  0  0  0  0  0  0
    5.2040    0.8255    0.0000 C   0  0  0  0  0  0  0  0  0  0  0  0
    3.6232    2.8874    0.0000 O   0  0  0  0  0  0  0  0  0  0  0  0
    0.0520    0.1495    0.0000 C   0  0  0  0  0  0  0  0  0  0  0  0
   -0.8606    1.3399    0.0000 C   0  0  0  0  0  0  0  0  0  0  0  0
   -2.3479    1.1447    0.0000 C   0  0  0  0  0  0  0  0  0  0  0  0
   -3.2407   -0.0606    0.0000 C   0  0  0  0  0  0  0  0  0  0  0  0
   -3.2605    2.3351    0.0000 N   0  0  0  0  0  0  0  0  0  0  0  0
   -4.7478    2.1400    0.0000 C   0  0  0  0  0  0  0  0  0  0  0  0
   -2.6859    3.7207    0.0000 C   0  0  0  0  0  0  0  0  0  0  0  0
    0.9646   -1.0410    0.0000 C   0  0  0  0  0  0  0  0  0  0  0  0
    0.3900   -2.4265    0.0000 C   0  0  0  0  0  0  0  0  0  0  0  0
    1.3027   -3.6170    0.0000 C   0  0  0  0  0  0  0  0  0  0  0  0
    2.7899   -3.4218    0.0000 C   0  0  0  0  0  0  0  0  0  0  0  0
    3.3645   -2.0362    0.0000 C   0  0  0  0  0  0  0  0  0  0  0  0
    2.4519   -0.8458    0.0000 C   0  0  0  0  0  0  0  0  0  0  0  0
   -1.1384   -0.7632    0.0000 C   0  0  0  0  0  0  0  0  0  0  0  0
   -0.9433   -2.2504    0.0000 C   0  0  0  0  0  0  0  0  0  0  0  0
   -2.1337   -3.1631    0.0000 C   0  0  0  0  0  0  0  0  0  0  0  0
   -3.5193   -2.5885    0.0000 C   0  0  0  0  0  0  0  0  0  0  0  0
   -3.7144   -1.1012    0.0000 C   0  0  0  0  0  0  0  0  0  0  0  0
   -2.5240   -0.1886    0.0000 C   0  0  0  0  0  0  0  0  0  0  0  0
  1  2  1  0
  3  2  1  6
  3  4  1  0
  4  5  1  0
  5  6  1  0
  5  7  2  0
  3  8  1  0
  8  9  1  0
  9 10  1  0
 10 11  1  6
 10 12  1  0
 12 13  1  0
 12 14  1  0
  8 15  1  0
 15 16  2  0
 16 17  1  0
 17 18  2  0
 18 19  1  0
 19 20  2  0
  8 21  1  0
 21 22  2  0
 22 23  1  0
 23 24  2  0
 24 25  1  0
 25 26  2  0
 20 15  1  0
 26 21  1  0
M  END
> <Identifier>
L-ALPHA-ACETYLMETHADOL

> <hERG>
1

$$$$

     RDKit          2D

 21 22  0  0  0  0  0  0  0  0999 V2000
   -6.7266    0.6565    0.0000 C   0  0  0  0  0  0  0  0  0  0  0  0
   -5.5694   -0.2979    0.0000 O   0  0  0  0  0  0  0  0  0  0  0  0
   -4.1643    0.2271    0.0000 C   0  0  0  0  0  0  0  0  0  0  0  0
   -3.9164    1.7065    0.0000 C   0  0  0  0  0  0  0  0  0  0  0  0
   -2.5112    2.2314    0.0000 C   0  0  0  0  0  0  0  0  0  0  0  0
   -1.3540    1.2771    0.0000 C   0  0  0  0  0  0  0  0  0  0  0  0
    0.0511    1.8021    0.0000 C   0  0  0  0  0  0  0  0  0  0  0  0
    1.2083    0.8477    0.0000 N   0  0  0  0  0  0  0  0  0  0  0  0
    2.6134    1.3727    0.0000 C   0  0  0  0  0  0  0  0  0  0  0  0
    3.7707    0.4183    0.0000 C   0  0  0  0  0  0  0  0  0  0  0  0
    5.1758    0.9433    0.0000 N   0  0  0  0  0  4  0  0  0  0  0  0
    6.3330   -0.0111    0.0000 C   0  0  0  0  0  0  0  0  0  0  0  0
    5.4237    2.4226    0.0000 C   0  0  0  0  0  0  0  0  0  0  0  0
    0.9604   -0.6317    0.0000 C   0  0  0  0  0  0  0  0  0  0  0  0
   -0.4447   -1.1567    0.0000 C   0  0  0  0  0  0  0  0  0  0  0  0
   -0.6926   -2.6361    0.0000 C   0  0  0  0  0  0  0  0  0  0  0  0
    0.4646   -3.5904    0.0000 C   0  0  0  0  0  0  0  0  0  0  0  0
    1.8697   -3.0655    0.0000 C   0  0  0  0  0  0  0  0  0  0  0  0
    2.1176   -1.5861    0.0000 N   0  0  0  0  0  0  0  0  0  0  0  0
   -1.6019   -0.2023    0.0000 C   0  0  0  0  0  0  0  0  0  0  0  0
   -3.0071   -0.7273    0.0000 C   0  0  0  0  0  0  0  0  0  0  0  0
  1  2  1  0
  2  3  1  0
  3  4  2  0
  4  5  1  0
  5  6  2  0
  6  7  1  0
  7  8  1  0
  8  9  1  0
  9 10  1  0
 10 11  1  0
 11 12  1  0
 11 13  1  0
  8 14  1  0
 14 15  2  0
 15 16  1  0
 16 17  2  0
 17 18  1  0
 18 19  2  0
  6 20  1  0
 20 21  2  0
 21  3  1  0
 19 14  1  0
M  CHG  1  11   1
M  END
> <Identifier>
PYRILAMINE

> <hERG>
1

$$$$

     RDKit          2D

 22 23  0  0  0  0  0  0  0  0999 V2000
   -7.6091    1.6171    0.0000 C   0  0  0  0  0  0  0  0  0  0  0  0
   -6.1133    1.7299    0.0000 C   0  0  0  0  0  0  0  0  0  0  0  0
   -5.2677    0.4909    0.0000 N   0  0  0  0  0  4  0  0  0  0  0  0
   -5.9179   -0.8608    0.0000 C   0  0  0  0  0  0  0  0  0  0  0  0
   -7.4137   -0.9736    0.0000 C   0  0  0  0  0  0  0  0  0  0  0  0
   -3.7720    0.6037    0.0000 C   0  0  0  0  0  0  0  0  0  0  0  0
   -2.9264   -0.6352    0.0000 C   0  0  0  0  0  0  0  0  0  0  0  0
   -1.4307   -0.5224    0.0000 C   0  0  0  0  0  0  0  0  0  0  0  0
   -0.5851   -1.7614    0.0000 C   0  0  0  0  0  0  0  0  0  0  0  0
   -1.2353   -3.1131    0.0000 C   0  0  0  0  0  0  0  0  0  0  0  0
    0.9106   -1.6486    0.0000 N   0  0  0  0  0  0  0  0  0  0  0  0
    1.5608   -0.2968    0.0000 C   0  0  0  0  0  0  0  0  0  0  0  0
    0.7153    0.9422    0.0000 C   0  0  0  0  0  0  0  0  0  0  0  0
    1.3654    2.2939    0.0000 C   0  0  0  0  0  0  0  0  0  0  0  0
    2.8612    2.4067    0.0000 N   0  0  0  0  0  0  0  0  0  0  0  0
    3.7068    1.1678    0.0000 C   0  0  0  0  0  0  0  0  0  0  0  0
    5.2025    1.2806    0.0000 C   0  0  0  0  0  0  0  0  0  0  0  0
    6.0481    0.0416    0.0000 C   0  0  0  0  0  0  0  0  0  0  0  0
    7.5438    0.1544    0.0000 Cl  0  0  0  0  0  0  0  0  0  0  0  0
    5.3979   -1.3101    0.0000 C   0  0  0  0  0  0  0  0  0  0  0  0
    3.9022   -1.4229    0.0000 C   0  0  0  0  0  0  0  0  0  0  0  0
    3.0566   -0.1840    0.0000 C   0  0  0  0  0  0  0  0  0  0  0  0
  1  2  1  0
  2  3  1  0
  3  4  1  0
  4  5  1  0
  3  6  1  0
  6  7  1  0
  7  8  1  0
  8  9  1  0
  9 10  1  6
  9 11  1  0
 11 12  1  0
 12 13  2  0
 13 14  1  0
 14 15  2  0
 15 16  1  0
 16 17  2  0
 17 18  1  0
 18 19  1  0
 18 20  2  0
 20 21  1  0
 21 22  2  0
 22 12  1  0
 22 16  1  0
M  CHG  1   3   1
M  END
> <Identifier>
CHLOROQUINE

> <hERG>
1

$$$$

     RDKit          2D

 31 35  0  0  0  0  0  0  0  0999 V2000
    1.9280   -2.7308    0.0000 O   0  0  0  0  0  0  0  0  0  0  0  0
    2.3352   -1.2871    0.0000 C   0  0  0  0  0  0  0  0  0  0  0  0
    1.2886   -0.2126    0.0000 N   0  0  0  0  0  0  0  0  0  0  0  0
   -0.1653   -0.5818    0.0000 C   0  0  0  0  0  0  0  0  0  0  0  0
   -1.2119    0.4927    0.0000 C   0  0  0  0  0  0  0  0  0  0  0  0
   -2.6658    0.1235    0.0000 C   0  0  0  0  0  0  0  0  0  0  0  0
   -3.0730   -1.3202    0.0000 N   0  0  0  0  0  0  0  0  0  0  0  0
   -4.5269   -1.6894    0.0000 C   0  0  0  0  0  0  0  0  0  0  0  0
   -5.5735   -0.6149    0.0000 C   0  0  0  0  0  0  0  0  0  0  0  0
   -5.1663    0.8288    0.0000 C   0  0  0  0  0  0  0  0  0  0  0  0
   -6.2129    1.9033    0.0000 C   0  0  0  0  0  0  0  0  0  0  0  0
   -7.6668    1.5341    0.0000 C   0  0  0  0  0  0  0  0  0  0  0  0
   -8.0740    0.0905    0.0000 C   0  0  0  0  0  0  0  0  0  0  0  0
   -7.0274   -0.9840    0.0000 C   0  0  0  0  0  0  0  0  0  0  0  0
   -9.5729    0.0316    0.0000 O   0  0  0  0  0  0  0  0  0  0  0  0
  -10.0920    1.4389    0.0000 C   0  0  0  0  0  0  0  0  0  0  0  0
   -8.9140    2.3675    0.0000 O   0  0  0  0  0  0  0  0  0  0  0  0
   -2.0264   -2.3947    0.0000 C   0  0  0  0  0  0  0  0  0  0  0  0
   -0.5725   -2.0255    0.0000 C   0  0  0  0  0  0  0  0  0  0  0  0
    3.7891   -0.9180    0.0000 C   0  0  0  0  0  0  0  0  0  0  0  0
    4.8357   -1.9924    0.0000 C   0  0  0  0  0  0  0  0  0  0  0  0
    6.2896   -1.6233    0.0000 C   0  0  0  0  0  0  0  0  0  0  0  0
    7.3362   -2.6978    0.0000 O   0  0  0  0  0  0  0  0  0  0  0  0
    6.6968   -0.1796    0.0000 C   0  0  0  0  0  0  0  0  0  0  0  0
    8.1507    0.1896    0.0000 C   0  0  0  0  0  0  0  0  0  0  0  0
    8.5579    1.6332    0.0000 C   0  0  0  0  0  0  0  0  0  0  0  0
    7.5112    2.7077    0.0000 C   0  0  0  0  0  0  0  0  0  0  0  0
    7.9184    4.1514    0.0000 Br  0  0  0  0  0  0  0  0  0  0  0  0
    6.0574    2.3386    0.0000 C   0  0  0  0  0  0  0  0  0  0  0  0
    5.6502    0.8949    0.0000 C   0  0  0  0  0  0  0  0  0  0  0  0
    4.1963    0.5257    0.0000 O   0  0  0  0  0  0  0  0  0  0  0  0
  1  2  2  0
  2  3  1  0
  3  4  1  0
  4  5  1  0
  5  6  1  0
  6  7  1  0
  7  8  1  0
  8  9  1  0
  9 10  2  0
 10 11  1  0
 11 12  2  0
 12 13  1  0
 13 14  2  0
 13 15  1  0
 15 16  1  0
 16 17  1  0
  7 18  1  0
 18 19  1  0
  2 20  1  0
 20 21  2  0
 21 22  1  0
 22 23  2  0
 22 24  1  0
 24 25  2  0
 25 26  1  0
 26 27  2  0
 27 28  1  0
 27 29  1  0
 29 30  2  0
 30 31  1  0
 19  4  1  0
 31 20  1  0
 14  9  1  0
 30 24  1  0
 17 12  1  0
M  END
> <Identifier>
JMC20066569-20

> <hERG>
1

$$$$

     RDKit          2D

 21 25  0  0  0  0  0  0  0  0999 V2000
    2.7457    0.0812    0.0000 C   0  0  0  0  0  0  0  0  0  0  0  0
    2.2937    1.5115    0.0000 C   0  0  0  0  0  0  0  0  0  0  0  0
    0.7938    1.5235    0.0000 C   0  0  0  0  0  0  0  0  0  0  0  0
    0.3188    0.1007    0.0000 C   0  0  0  0  0  0  0  0  0  0  0  0
    1.5251   -0.7907    0.0000 C   0  0  0  0  0  0  0  0  0  0  0  0
   -0.7878    1.1134    0.0000 C   0  0  0  0  0  0  0  0  0  0  0  0
   -2.2181    0.6614    0.0000 C   0  0  0  0  0  0  0  0  0  0  0  0
   -2.5418   -0.8033    0.0000 N   0  0  0  0  0  4  0  0  0  0  0  0
   -3.9721   -1.2553    0.0000 C   0  0  0  0  0  0  0  0  0  0  0  0
   -5.0787   -0.2427    0.0000 C   0  0  0  0  0  0  0  0  0  0  0  0
   -6.5433    0.0810    0.0000 C   0  0  0  0  0  0  0  0  0  0  0  0
   -5.5307    1.1876    0.0000 C   0  0  0  0  0  0  0  0  0  0  0  0
   -1.4352   -1.8159    0.0000 C   0  0  0  0  0  0  0  0  0  0  0  0
   -0.0049   -1.3639    0.0000 C   0  0  0  0  0  0  0  0  0  0  0  0
    0.9089   -0.4393    0.0000 C   0  0  0  0  0  0  0  0  0  0  0  0
    1.0816    0.3418    0.0000 N   0  0  0  0  0  4  0  0  0  0  0  0
    3.1793    1.0048    0.0000 C   0  0  0  0  0  0  0  0  0  0  0  0
    4.2859   -0.0079    0.0000 C   0  0  0  0  0  0  0  0  0  0  0  0
    5.7506   -0.3316    0.0000 C   0  0  0  0  0  0  0  0  0  0  0  0
    4.7379   -1.4382    0.0000 C   0  0  0  0  0  0  0  0  0  0  0  0
    0.4914    0.8819    0.0000 C   0  0  0  0  0  0  0  0  0  0  0  0
  1  2  1  0
  2  3  1  0
  3  4  1  0
  4  5  1  0
  4  6  1  0
  6  7  1  0
  7  8  1  0
  8  9  1  0
  9 10  1  0
 10 11  1  0
 11 12  1  0
  8 13  1  0
 13 14  1  0
 14 15  1  0
 15 16  1  0
 16 17  1  0
 17 18  1  0
 18 19  1  0
 19 20  1  0
 16 21  1  0
  5  1  1  0
 21  6  1  0
 14  4  1  0
 20 18  1  0
 12 10  1  0
M  CHG  2   8   1  16   1
M  END
> <Identifier>
TEDISAMIL

> <hERG>
1

$$$$

     RDKit          2D

 23 26  0  0  0  0  0  0  0  0999 V2000
   -5.9806   -1.5624    0.0000 F   0  0  0  0  0  0  0  0  0  0  0  0
   -4.5650   -1.0665    0.0000 C   0  0  0  0  0  0  0  0  0  0  0  0
   -4.2865    0.4074    0.0000 C   0  0  0  0  0  0  0  0  0  0  0  0
   -2.8709    0.9032    0.0000 C   0  0  0  0  0  0  0  0  0  0  0  0
   -1.7336   -0.0749    0.0000 C   0  0  0  0  0  0  0  0  0  0  0  0
   -0.2458    0.1158    0.0000 C   0  0  0  0  0  0  0  0  0  0  0  0
    0.4745    1.4316    0.0000 C   0  0  0  0  0  0  0  0  0  0  0  0
    1.9741    1.4657    0.0000 C   0  0  0  0  0  0  0  0  0  0  0  0
    2.6944    2.7814    0.0000 N   0  0  0  0  0  4  0  0  0  0  0  0
    1.9150    4.0631    0.0000 C   0  0  0  0  0  0  0  0  0  0  0  0
    0.4154    4.0290    0.0000 C   0  0  0  0  0  0  0  0  0  0  0  0
   -0.3049    2.7132    0.0000 C   0  0  0  0  0  0  0  0  0  0  0  0
   -1.8045    2.6791    0.0000 F   0  0  0  0  0  0  0  0  0  0  0  0
    0.3953   -1.2403    0.0000 C   0  0  0  0  0  0  0  0  0  0  0  0
    1.8693   -1.5187    0.0000 C   0  0  0  0  0  0  0  0  0  0  0  0
    2.3651   -2.9344    0.0000 C   0  0  0  0  0  0  0  0  0  0  0  0
    3.8390   -3.2128    0.0000 N   0  0  0  0  0  0  0  0  0  0  0  0
    4.8171   -2.0756    0.0000 C   0  0  0  0  0  0  0  0  0  0  0  0
    4.3213   -0.6599    0.0000 C   0  0  0  0  0  0  0  0  0  0  0  0
    2.8473   -0.3815    0.0000 C   0  0  0  0  0  0  0  0  0  0  0  0
   -0.6963   -2.2691    0.0000 N   0  0  0  0  0  0  0  0  0  0  0  0
   -2.0120   -1.5488    0.0000 C   0  0  0  0  0  0  0  0  0  0  0  0
   -3.4277   -2.0446    0.0000 C   0  0  0  0  0  0  0  0  0  0  0  0
  1  2  1  0
  2  3  2  0
  3  4  1  0
  4  5  2  0
  5  6  1  0
  7  6  1  1
  7  8  1  0
  8  9  1  0
  9 10  1  0
 10 11  1  0
 11 12  1  0
 12 13  1  1
  6 14  2  0
 14 15  1  0
 15 16  2  0
 16 17  1  0
 17 18  1  0
 18 19  2  0
 19 20  1  0
 14 21  1  0
 21 22  1  0
 22 23  2  0
 23  2  1  0
 22  5  1  0
 12  7  1  0
 20 15  1  0
M  CHG  1   9   1
M  END
> <Identifier>
WOMBAT38

> <hERG>
1

$$$$

     RDKit          2D

 33 37  0  0  0  0  0  0  0  0999 V2000
    7.4469   -0.8458    0.0000 C   0  0  0  0  0  0  0  0  0  0  0  0
    6.7558    0.4855    0.0000 O   0  0  0  0  0  0  0  0  0  0  0  0
    5.2573    0.5526    0.0000 C   0  0  0  0  0  0  0  0  0  0  0  0
    4.4499   -0.7116    0.0000 C   0  0  0  0  0  0  0  0  0  0  0  0
    2.9514   -0.6444    0.0000 C   0  0  0  0  0  0  0  0  0  0  0  0
    2.2603    0.6869    0.0000 C   0  0  0  0  0  0  0  0  0  0  0  0
    3.0676    1.9510    0.0000 C   0  0  0  0  0  0  0  0  0  0  0  0
    4.5661    1.8839    0.0000 C   0  0  0  0  0  0  0  0  0  0  0  0
    5.3735    3.1481    0.0000 O   0  0  0  0  0  0  0  0  0  0  0  0
    4.6824    4.4794    0.0000 C   0  0  0  0  0  0  0  0  0  0  0  0
    0.7618    0.7540    0.0000 C   0  0  0  0  0  0  0  0  0  0  0  0
    0.0706    2.0853    0.0000 C   0  0  0  0  0  0  0  0  0  0  0  0
   -1.4279    2.1524    0.0000 C   0  0  0  0  0  0  0  0  0  0  0  0
   -2.1190    3.4837    0.0000 C   0  0  0  0  0  0  0  0  0  0  0  0
   -3.6175    3.5508    0.0000 C   0  0  0  0  0  0  0  0  0  0  0  0
   -4.4248    2.2866    0.0000 C   0  0  0  0  0  0  0  0  0  0  0  0
   -5.9233    2.3537    0.0000 O   0  0  0  0  0  0  0  0  0  0  0  0
   -6.6145    3.6850    0.0000 C   0  0  0  0  0  0  0  0  0  0  0  0
   -3.7337    0.9553    0.0000 C   0  0  0  0  0  0  0  0  0  0  0  0
   -4.5411   -0.3089    0.0000 O   0  0  0  0  0  0  0  0  0  0  0  0
   -6.0396   -0.2418    0.0000 C   0  0  0  0  0  0  0  0  0  0  0  0
   -2.2352    0.8882    0.0000 C   0  0  0  0  0  0  0  0  0  0  0  0
   -1.5441   -0.4431    0.0000 C   0  0  0  0  0  0  0  0  0  0  0  0
   -2.3515   -1.7073    0.0000 C   0  0  0  0  0  0  0  0  0  0  0  0
   -1.6603   -3.0386    0.0000 C   0  0  0  0  0  0  0  0  0  0  0  0
   -0.1618   -3.1057    0.0000 C   0  0  0  0  0  0  0  0  0  0  0  0
    0.5293   -4.4370    0.0000 C   0  0  0  0  0  0  0  0  0  0  0  0
   -0.2781   -5.7012    0.0000 C   0  0  0  0  0  0  0  0  0  0  0  0
   -1.7766   -5.6340    0.0000 C   0  0  0  0  0  0  0  0  0  0  0  0
   -2.4677   -4.3028    0.0000 C   0  0  0  0  0  0  0  0  0  0  0  0
   -0.0456   -0.5102    0.0000 N   0  0  0  0  0  0  0  0  0  0  0  0
    0.6455   -1.8415    0.0000 C   0  0  0  0  0  0  0  0  0  0  0  0
    2.1440   -1.9086    0.0000 C   0  0  0  0  0  0  0  0  0  0  0  0
  1  2  1  0
  2  3  1  0
  3  4  2  0
  4  5  1  0
  5  6  2  0
  6  7  1  0
  7  8  2  0
  8  9  1  0
  9 10  1  0
  6 11  1  0
 11 12  1  1
 12 13  1  0
 13 14  2  0
 14 15  1  0
 15 16  2  0
 16 17  1  0
 17 18  1  0
 16 19  1  0
 19 20  1  0
 20 21  1  0
 19 22  2  0
 22 23  1  0
 23 24  1  6
 24 25  1  0
 25 26  2  0
 26 27  1  0
 27 28  2  0
 28 29  1  0
 29 30  2  0
 23 31  1  0
 31 32  1  0
 32 33  1  0
  8  3  1  0
 31 11  1  0
 33  5  1  0
 22 13  1  0
 30 25  1  0
M  END
> <Identifier>
BTHP

> <hERG>
1

$$$$

     RDKit          2D

 26 28  0  0  0  0  0  0  0  0999 V2000
   -1.7867    3.0336    0.0000 O   0  0  0  0  0  0  0  0  0  0  0  0
   -1.9458    1.5420    0.0000 C   0  0  0  0  0  0  0  0  0  0  0  0
   -0.7337    0.6585    0.0000 C   0  0  0  0  0  0  0  0  0  0  0  0
   -0.8928   -0.8331    0.0000 C   0  0  0  0  0  0  0  0  0  0  0  0
    0.3193   -1.7166    0.0000 C   0  0  0  0  0  0  0  0  0  0  0  0
    0.1602   -3.2082    0.0000 C   0  0  0  0  0  0  0  0  0  0  0  0
    0.0011   -4.6997    0.0000 F   0  0  0  0  0  0  0  0  0  0  0  0
   -1.3313   -3.0491    0.0000 F   0  0  0  0  0  0  0  0  0  0  0  0
    1.6517   -3.3673    0.0000 F   0  0  0  0  0  0  0  0  0  0  0  0
    1.6906   -1.1087    0.0000 N   0  0  0  0  0  0  0  0  0  0  0  0
    1.8497    0.3829    0.0000 C   0  0  0  0  0  0  0  0  0  0  0  0
    3.2210    0.9908    0.0000 C   0  0  0  0  0  0  0  0  0  0  0  0
    4.4331    0.1072    0.0000 C   0  0  0  0  0  0  0  0  0  0  0  0
    5.6453   -0.7763    0.0000 F   0  0  0  0  0  0  0  0  0  0  0  0
    5.3167    1.3194    0.0000 F   0  0  0  0  0  0  0  0  0  0  0  0
    3.5496   -1.1049    0.0000 F   0  0  0  0  0  0  0  0  0  0  0  0
    3.3801    2.4824    0.0000 C   0  0  0  0  0  0  0  0  0  0  0  0
    2.1680    3.3659    0.0000 C   0  0  0  0  0  0  0  0  0  0  0  0
    0.7967    2.7580    0.0000 C   0  0  0  0  0  0  0  0  0  0  0  0
    0.6376    1.2664    0.0000 C   0  0  0  0  0  0  0  0  0  0  0  0
   -3.3171    0.9341    0.0000 C   0  0  0  0  0  0  0  0  0  0  0  0
   -4.5293    1.8177    0.0000 C   0  0  0  0  0  0  0  0  0  0  0  0
   -5.9005    1.2097    0.0000 C   0  0  0  0  0  0  0  0  0  0  0  0
   -6.0597   -0.2818    0.0000 C   0  0  0  0  0  0  0  0  0  0  0  0
   -4.8475   -1.1654    0.0000 C   0  0  0  0  0  0  0  0  0  0  0  0
   -3.4762   -0.5575    0.0000 N   0  0  0  0  0  4  0  0  0  0  0  0
  2  1  1  1
  2  3  1  0
  3  4  2  0
  4  5  1  0
  5  6  1  0
  6  7  1  0
  6  8  1  0
  6  9  1  0
  5 10  2  0
 10 11  1  0
 11 12  2  0
 12 13  1  0
 13 14  1  0
 13 15  1  0
 13 16  1  0
 12 17  1  0
 17 18  2  0
 18 19  1  0
 19 20  2  0
  2 21  1  0
 21 22  1  6
 22 23  1  0
 23 24  1  0
 24 25  1  0
 25 26  1  0
 20  3  1  0
 26 21  1  0
 20 11  1  0
M  CHG  1  26   1
M  END
> <Identifier>
MEFLOQUINE

> <hERG>
1

$$$$

     RDKit          2D

 46 51  0  0  0  0  0  0  0  0999 V2000
  -10.0503   -2.9759    0.0000 C   0  0  0  0  0  0  0  0  0  0  0  0
   -8.6027   -3.3692    0.0000 O   0  0  0  0  0  0  0  0  0  0  0  0
   -7.5384   -2.3122    0.0000 C   0  0  0  0  0  0  0  0  0  0  0  0
   -7.9216   -0.8620    0.0000 C   0  0  0  0  0  0  0  0  0  0  0  0
   -6.8572    0.1949    0.0000 C   0  0  0  0  0  0  0  0  0  0  0  0
   -5.4097   -0.1983    0.0000 C   0  0  0  0  0  0  0  0  0  0  0  0
   -5.0265   -1.6485    0.0000 C   0  0  0  0  0  0  0  0  0  0  0  0
   -6.0909   -2.7055    0.0000 C   0  0  0  0  0  0  0  0  0  0  0  0
   -5.7077   -4.1557    0.0000 O   0  0  0  0  0  0  0  0  0  0  0  0
   -4.2601   -4.5490    0.0000 C   0  0  0  0  0  0  0  0  0  0  0  0
   -4.3454    0.8586    0.0000 C   0  0  0  0  0  0  0  0  0  0  0  0
   -2.8978    0.4654    0.0000 C   0  0  0  0  0  0  0  0  0  0  0  0
   -1.8335    1.5223    0.0000 C   0  0  0  0  0  0  0  0  0  0  0  0
   -0.3860    1.1291    0.0000 C   0  0  0  0  0  0  0  0  0  0  0  0
    0.6784    2.1860    0.0000 C   0  0  0  0  0  0  0  0  0  0  0  0
    0.2952    3.6363    0.0000 C   0  0  0  0  0  0  0  0  0  0  0  0
    1.3595    4.6932    0.0000 O   0  0  0  0  0  0  0  0  0  0  0  0
    2.8071    4.3000    0.0000 C   0  0  0  0  0  0  0  0  0  0  0  0
    3.1903    2.8497    0.0000 C   0  0  0  0  0  0  0  0  0  0  0  0
    4.6378    2.4565    0.0000 C   0  0  0  0  0  0  0  0  0  0  0  0
    5.0210    1.0063    0.0000 C   0  0  0  0  0  0  0  0  0  0  0  0
    3.9566   -0.0507    0.0000 C   0  0  0  0  0  0  0  0  0  0  0  0
    4.3398   -1.5009    0.0000 C   0  0  0  0  0  0  0  0  0  0  0  0
    5.7873   -1.8942    0.0000 C   0  0  0  0  0  0  0  0  0  0  0  0
    6.1705   -3.3444    0.0000 C   0  0  0  0  0  0  0  0  0  0  0  0
    7.6181   -3.7377    0.0000 O   0  0  0  0  0  0  0  0  0  0  0  0
    8.0013   -5.1879    0.0000 C   0  0  0  0  0  0  0  0  0  0  0  0
    5.1062   -4.4014    0.0000 C   0  0  0  0  0  0  0  0  0  0  0  0
    5.4894   -5.8516    0.0000 O   0  0  0  0  0  0  0  0  0  0  0  0
    4.4250   -6.9086    0.0000 C   0  0  0  0  0  0  0  0  0  0  0  0
    3.6587   -4.0081    0.0000 C   0  0  0  0  0  0  0  0  0  0  0  0
    3.2755   -2.5579    0.0000 C   0  0  0  0  0  0  0  0  0  0  0  0
    1.8279   -2.1646    0.0000 C   0  0  0  0  0  0  0  0  0  0  0  0
    1.4448   -0.7144    0.0000 C   0  0  0  0  0  0  0  0  0  0  0  0
    2.5091    0.3426    0.0000 N   0  0  0  0  0  0  0  0  0  0  0  0
    2.1259    1.7928    0.0000 C   0  0  0  0  0  0  0  0  0  0  0  0
    5.7021    3.5135    0.0000 C   0  0  0  0  0  0  0  0  0  0  0  0
    5.3189    4.9637    0.0000 C   0  0  0  0  0  0  0  0  0  0  0  0
    3.8714    5.3569    0.0000 C   0  0  0  0  0  0  0  0  0  0  0  0
    3.4882    6.8072    0.0000 O   0  0  0  0  0  0  0  0  0  0  0  0
   -1.1523    4.0295    0.0000 C   0  0  0  0  0  0  0  0  0  0  0  0
   -2.2167    2.9726    0.0000 C   0  0  0  0  0  0  0  0  0  0  0  0
   -4.7285    2.3089    0.0000 N   0  0  0  0  0  0  0  0  0  0  0  0
   -3.6642    3.3658    0.0000 C   0  0  0  0  0  0  0  0  0  0  0  0
   -6.1761    2.7021    0.0000 C   0  0  0  0  0  0  0  0  0  0  0  0
   -7.2404    1.6452    0.0000 C   0  0  0  0  0  0  0  0  0  0  0  0
  1  2  1  0
  2  3  1  0
  3  4  2  0
  4  5  1  0
  5  6  2  0
  6  7  1  0
  7  8  2  0
  8  9  1  0
  9 10  1  0
  6 11  1  0
 11 12  1  6
 12 13  1  0
 13 14  2  0
 14 15  1  0
 15 16  2  0
 16 17  1  0
 17 18  1  0
 18 19  2  0
 19 20  1  0
 20 21  1  0
 22 21  1  6
 22 23  1  0
 23 24  2  0
 24 25  1  0
 25 26  1  0
 26 27  1  0
 25 28  2  0
 28 29  1  0
 29 30  1  0
 28 31  1  0
 31 32  2  0
 32 33  1  0
 33 34  1  0
 34 35  1  0
 35 36  1  0
 20 37  2  0
 37 38  1  0
 38 39  2  0
 39 40  1  0
 16 41  1  0
 41 42  2  0
 11 43  1  0
 43 44  1  0
 43 45  1  0
 45 46  1  0
  8  3  1  0
 42 13  1  0
 46  5  1  0
 39 18  1  0
 35 22  1  0
 32 23  1  0
M  END
> <Identifier>
DAURICINE

> <hERG>
1

$$$$

     RDKit          2D

 26 28  0  0  0  0  0  0  0  0999 V2000
    6.4995   -3.4439    0.0000 C   0  0  0  0  0  0  0  0  0  0  0  0
    5.6885   -2.1820    0.0000 C   0  0  0  0  0  0  0  0  0  0  0  0
    6.2327   -0.7843    0.0000 C   0  0  0  0  0  0  0  0  0  0  0  0
    5.0715    0.1653    0.0000 N   0  0  0  0  0  0  0  0  0  0  0  0
    5.0001    1.6636    0.0000 C   0  0  0  0  0  0  0  0  0  0  0  0
    6.2620    2.4745    0.0000 N   0  0  0  0  0  0  0  0  0  0  0  0
    3.6669    2.3509    0.0000 C   0  0  0  0  0  0  0  0  0  0  0  0
    3.5955    3.8492    0.0000 Cl  0  0  0  0  0  0  0  0  0  0  0  0
    2.4050    1.5399    0.0000 C   0  0  0  0  0  0  0  0  0  0  0  0
    2.4764    0.0416    0.0000 C   0  0  0  0  0  0  0  0  0  0  0  0
    1.2145   -0.7693    0.0000 C   0  0  0  0  0  0  0  0  0  0  0  0
    1.2859   -2.2676    0.0000 O   0  0  0  0  0  0  0  0  0  0  0  0
   -0.1188   -0.0820    0.0000 N   0  0  0  0  0  0  0  0  0  0  0  0
   -1.3806   -0.8929    0.0000 C   0  0  0  0  0  0  0  0  0  0  0  0
   -2.7139   -0.2056    0.0000 C   0  0  0  0  0  0  0  0  0  0  0  0
   -2.7853    1.2927    0.0000 C   0  0  0  0  0  0  0  0  0  0  0  0
   -4.1185    1.9800    0.0000 C   0  0  0  0  0  0  0  0  0  0  0  0
   -5.3804    1.1691    0.0000 C   0  0  0  0  0  0  0  0  0  0  0  0
   -5.3090   -0.3292    0.0000 N   0  0  0  0  0  0  0  0  0  0  0  0
   -6.5709   -1.1402    0.0000 C   0  0  0  0  0  0  0  0  0  0  0  0
   -7.9042   -0.4528    0.0000 C   0  0  0  0  0  0  0  0  0  0  0  0
   -9.1660   -1.2638    0.0000 C   0  0  0  0  0  0  0  0  0  0  0  0
   -7.9755    1.0455    0.0000 C   0  0  0  0  0  0  0  0  0  0  0  0
   -3.9758   -1.0166    0.0000 C   0  0  0  0  0  0  0  0  0  0  0  0
    3.8096   -0.6457    0.0000 C   0  0  0  0  0  0  0  0  0  0  0  0
    4.1909   -2.0964    0.0000 N   0  0  0  0  0  0  0  0  0  0  0  0
  1  2  1  0
  2  3  2  0
  3  4  1  0
  4  5  1  0
  5  6  1  0
  5  7  2  0
  7  8  1  0
  7  9  1  0
  9 10  2  0
 10 11  1  0
 11 12  2  0
 11 13  1  0
 13 14  1  0
 15 14  1  1
 15 16  1  0
 16 17  1  0
 17 18  1  0
 18 19  1  0
 19 20  1  0
 20 21  1  0
 21 22  1  0
 21 23  1  0
 19 24  1  0
 10 25  1  0
 25 26  1  1
 26  2  1  0
 25  4  1  0
 24 15  1  0
M  END
> <Identifier>
CJ-033466

> <hERG>
1

$$$$

     RDKit          2D

 26 28  0  0  0  0  0  0  0  0999 V2000
   -3.2174    2.0203    0.0000 O   0  0  0  0  0  0  0  0  0  0  0  0
   -3.8520    0.6612    0.0000 C   0  0  0  0  0  0  0  0  0  0  0  0
   -2.9922   -0.5680    0.0000 C   0  0  0  0  0  0  0  0  0  0  0  0
   -1.4978   -0.4379    0.0000 C   0  0  0  0  0  0  0  0  0  0  0  0
   -0.6381   -1.6671    0.0000 C   0  0  0  0  0  0  0  0  0  0  0  0
    0.8563   -1.5370    0.0000 N   0  0  0  0  0  0  0  0  0  0  0  0
    1.7161   -2.7662    0.0000 C   0  0  0  0  0  0  0  0  0  0  0  0
    3.2104   -2.6361    0.0000 C   0  0  0  0  0  0  0  0  0  0  0  0
    3.8450   -1.2770    0.0000 C   0  0  0  0  0  0  0  0  0  0  0  0
    5.0733   -2.1379    0.0000 O   0  0  0  0  0  0  0  0  0  0  0  0
    4.9062   -0.2168    0.0000 C   0  0  0  0  0  0  0  0  0  0  0  0
    6.3549   -0.6057    0.0000 C   0  0  0  0  0  0  0  0  0  0  0  0
    7.4160    0.4544    0.0000 C   0  0  0  0  0  0  0  0  0  0  0  0
    7.0285    1.9035    0.0000 C   0  0  0  0  0  0  0  0  0  0  0  0
    8.0897    2.9636    0.0000 Cl  0  0  0  0  0  0  0  0  0  0  0  0
    5.5798    2.2924    0.0000 C   0  0  0  0  0  0  0  0  0  0  0  0
    4.5186    1.2322    0.0000 C   0  0  0  0  0  0  0  0  0  0  0  0
    2.9852   -0.0479    0.0000 C   0  0  0  0  0  0  0  0  0  0  0  0
    1.4909   -0.1779    0.0000 C   0  0  0  0  0  0  0  0  0  0  0  0
   -5.3463    0.5312    0.0000 C   0  0  0  0  0  0  0  0  0  0  0  0
   -6.2061    1.7603    0.0000 C   0  0  0  0  0  0  0  0  0  0  0  0
   -7.7005    1.6303    0.0000 C   0  0  0  0  0  0  0  0  0  0  0  0
   -8.3350    0.2711    0.0000 C   0  0  0  0  0  0  0  0  0  0  0  0
   -9.8294    0.1411    0.0000 F   0  0  0  0  0  0  0  0  0  0  0  0
   -7.4753   -0.9580    0.0000 C   0  0  0  0  0  0  0  0  0  0  0  0
   -5.9809   -0.8280    0.0000 C   0  0  0  0  0  0  0  0  0  0  0  0
  2  1  1  6
  2  3  1  0
  3  4  1  0
  4  5  1  0
  5  6  1  0
  6  7  1  0
  7  8  1  0
  8  9  1  0
  9 10  1  0
  9 11  1  0
 11 12  2  0
 12 13  1  0
 13 14  2  0
 14 15  1  0
 14 16  1  0
 16 17  2  0
  9 18  1  0
 18 19  1  0
  2 20  1  0
 20 21  2  0
 21 22  1  0
 22 23  2  0
 23 24  1  0
 23 25  1  0
 25 26  2  0
 19  6  1  0
 26 20  1  0
 17 11  1  0
M  END
> <Identifier>
HYDROXYHALOPERIDOL

> <hERG>
1

$$$$

     RDKit          2D

 17 17  0  0  0  0  0  0  0  0999 V2000
   -3.4064   -1.6032    0.0000 C   0  0  0  0  0  0  0  0  0  0  0  0
   -2.1923   -0.7224    0.0000 C   0  0  0  0  0  0  0  0  0  0  0  0
   -2.3481    0.7695    0.0000 C   0  0  0  0  0  0  0  0  0  0  0  0
   -3.7180    1.3805    0.0000 N   0  0  0  0  0  0  0  0  0  0  0  0
   -3.8738    2.8724    0.0000 C   0  0  0  0  0  0  0  0  0  0  0  0
   -4.9321    0.4997    0.0000 C   0  0  0  0  0  0  0  0  0  0  0  0
   -0.8224   -1.3334    0.0000 C   0  0  0  0  0  0  0  0  0  0  0  0
   -1.4334   -2.7033    0.0000 C   0  0  0  0  0  0  0  0  0  0  0  0
    0.5475   -1.9444    0.0000 O   0  0  0  0  0  0  0  0  0  0  0  0
   -0.2114    0.0365    0.0000 C   0  0  0  0  0  0  0  0  0  0  0  0
    1.2805    0.1923    0.0000 C   0  0  0  0  0  0  0  0  0  0  0  0
    2.1614   -1.0218    0.0000 C   0  0  0  0  0  0  0  0  0  0  0  0
    3.6533   -0.8660    0.0000 C   0  0  0  0  0  0  0  0  0  0  0  0
    4.2643    0.5039    0.0000 C   0  0  0  0  0  0  0  0  0  0  0  0
    5.7562    0.6597    0.0000 Cl  0  0  0  0  0  0  0  0  0  0  0  0
    3.3834    1.7180    0.0000 C   0  0  0  0  0  0  0  0  0  0  0  0
    1.8915    1.5622    0.0000 C   0  0  0  0  0  0  0  0  0  0  0  0
  2  1  1  1
  2  3  1  0
  3  4  1  0
  4  5  1  0
  4  6  1  0
  2  7  1  0
  7  8  1  6
  7  9  1  0
  7 10  1  0
 10 11  1  0
 11 12  2  0
 12 13  1  0
 13 14  2  0
 14 15  1  0
 14 16  1  0
 16 17  2  0
 17 11  1  0
M  END
> <Identifier>
CLOBUTINOL

> <hERG>
1

$$$$

     RDKit          2D

 26 29  0  0  0  0  0  0  0  0999 V2000
    5.9138    2.5907    0.0000 O   0  0  0  0  0  0  0  0  0  0  0  0
    5.3757    1.1906    0.0000 C   0  0  0  0  0  0  0  0  0  0  0  0
    3.9267    0.8029    0.0000 N   0  0  0  0  0  0  0  0  0  0  0  0
    2.7614    1.7473    0.0000 C   0  0  0  0  0  0  0  0  0  0  0  0
    1.3608    1.2103    0.0000 C   0  0  0  0  0  0  0  0  0  0  0  0
    0.1954    2.1547    0.0000 C   0  0  0  0  0  0  0  0  0  0  0  0
   -1.2052    1.6177    0.0000 N   0  0  0  0  0  0  0  0  0  0  0  0
   -2.3705    2.5621    0.0000 C   0  0  0  0  0  0  0  0  0  0  0  0
   -3.7711    2.0251    0.0000 C   0  0  0  0  0  0  0  0  0  0  0  0
   -4.0063    0.5437    0.0000 N   0  0  0  0  0  0  0  0  0  0  0  0
   -5.4069    0.0066    0.0000 C   0  0  0  0  0  0  0  0  0  0  0  0
   -6.5722    0.9511    0.0000 C   0  0  0  0  0  0  0  0  0  0  0  0
   -7.9728    0.4140    0.0000 C   0  0  0  0  0  0  0  0  0  0  0  0
   -8.2080   -1.0674    0.0000 C   0  0  0  0  0  0  0  0  0  0  0  0
   -7.0427   -2.0118    0.0000 C   0  0  0  0  0  0  0  0  0  0  0  0
   -7.2779   -3.4933    0.0000 Cl  0  0  0  0  0  0  0  0  0  0  0  0
   -5.6421   -1.4748    0.0000 C   0  0  0  0  0  0  0  0  0  0  0  0
   -2.8409   -0.4008    0.0000 C   0  0  0  0  0  0  0  0  0  0  0  0
   -1.4404    0.1363    0.0000 C   0  0  0  0  0  0  0  0  0  0  0  0
    3.8476   -0.6950    0.0000 N   0  0  0  0  0  0  0  0  0  0  0  0
    5.2478   -1.2331    0.0000 C   0  0  0  0  0  0  0  0  0  0  0  0
    5.7848   -2.6337    0.0000 C   0  0  0  0  0  0  0  0  0  0  0  0
    7.2663   -2.8689    0.0000 C   0  0  0  0  0  0  0  0  0  0  0  0
    8.2107   -1.7035    0.0000 C   0  0  0  0  0  0  0  0  0  0  0  0
    7.6737   -0.3030    0.0000 C   0  0  0  0  0  0  0  0  0  0  0  0
    6.1922   -0.0677    0.0000 N   0  0  0  0  0  0  0  0  0  0  0  0
  1  2  2  0
  2  3  1  0
  3  4  1  0
  4  5  1  0
  5  6  1  0
  6  7  1  0
  7  8  1  0
  8  9  1  0
  9 10  1  0
 10 11  1  0
 11 12  2  0
 12 13  1  0
 13 14  2  0
 14 15  1  0
 15 16  1  0
 15 17  2  0
 10 18  1  0
 18 19  1  0
  3 20  1  0
 20 21  2  0
 21 22  1  0
 22 23  2  0
 23 24  1  0
 24 25  2  0
 25 26  1  0
 26  2  1  0
 19  7  1  0
 26 21  1  0
 17 11  1  0
M  END
> <Identifier>
TRAZODONE

> <hERG>
1

$$$$

     RDKit          2D

 20 23  0  0  0  0  0  0  0  0999 V2000
   -3.0808    3.2080    0.0000 C   0  0  0  0  0  0  0  0  0  0  0  0
   -2.8964    1.7194    0.0000 N   0  0  0  0  0  0  0  0  0  0  0  0
   -4.0934    0.8154    0.0000 C   0  0  0  0  0  0  0  0  0  0  0  0
   -3.9090   -0.6732    0.0000 C   0  0  0  0  0  0  0  0  0  0  0  0
   -2.5276   -1.2578    0.0000 C   0  0  0  0  0  0  0  0  0  0  0  0
   -2.3431   -2.7464    0.0000 C   0  0  0  0  0  0  0  0  0  0  0  0
   -0.9617   -3.3310    0.0000 C   0  0  0  0  0  0  0  0  0  0  0  0
    0.2352   -2.4270    0.0000 C   0  0  0  0  0  0  0  0  0  0  0  0
    0.0508   -0.9384    0.0000 C   0  0  0  0  0  0  0  0  0  0  0  0
   -1.3306   -0.3538    0.0000 C   0  0  0  0  0  0  0  0  0  0  0  0
   -1.5150    1.1348    0.0000 C   0  0  0  0  0  0  0  0  0  0  0  0
   -0.3180    2.0389    0.0000 C   0  0  0  0  0  0  0  0  0  0  0  0
    1.0633    1.4543    0.0000 C   0  0  0  0  0  0  0  0  0  0  0  0
    2.2603    2.3583    0.0000 C   0  0  0  0  0  0  0  0  0  0  0  0
    3.6417    1.7737    0.0000 C   0  0  0  0  0  0  0  0  0  0  0  0
    3.8261    0.2851    0.0000 C   0  0  0  0  0  0  0  0  0  0  0  0
    5.2075   -0.2995    0.0000 O   0  0  0  0  0  0  0  0  0  0  0  0
    2.6292   -0.6189    0.0000 C   0  0  0  0  0  0  0  0  0  0  0  0
    2.8136   -2.1076    0.0000 O   0  0  0  0  0  0  0  0  0  0  0  0
    1.2478   -0.0343    0.0000 C   0  0  0  0  0  0  0  0  0  0  0  0
  1  2  1  0
  2  3  1  0
  3  4  1  0
  4  5  1  0
  5  6  2  0
  6  7  1  0
  7  8  2  0
  8  9  1  0
  9 10  2  0
 10 11  1  0
 11 12  1  6
 12 13  1  0
 13 14  2  0
 14 15  1  0
 15 16  2  0
 16 17  1  0
 16 18  1  0
 18 19  1  0
 18 20  2  0
 11  2  1  0
 20 13  1  0
 10  5  1  0
 20  9  1  0
M  END
> <Identifier>
APOMORPHINE

> <hERG>
1

$$$$

     RDKit          2D

 24 25  0  0  0  0  0  0  0  0999 V2000
   -9.4080   -0.7889    0.0000 C   0  0  0  0  0  0  0  0  0  0  0  0
   -8.0173   -1.3511    0.0000 C   0  0  0  0  0  0  0  0  0  0  0  0
   -6.8351   -0.4279    0.0000 N   0  0  0  0  0  0  0  0  0  0  0  0
   -7.0436    1.0576    0.0000 C   0  0  0  0  0  0  0  0  0  0  0  0
   -8.4342    1.6198    0.0000 C   0  0  0  0  0  0  0  0  0  0  0  0
   -5.4445   -0.9901    0.0000 C   0  0  0  0  0  0  0  0  0  0  0  0
   -4.2623   -0.0668    0.0000 C   0  0  0  0  0  0  0  0  0  0  0  0
   -2.8716   -0.6290    0.0000 O   0  0  0  0  0  0  0  0  0  0  0  0
   -1.6894    0.2942    0.0000 C   0  0  0  0  0  0  0  0  0  0  0  0
   -0.2987   -0.2680    0.0000 C   0  0  0  0  0  0  0  0  0  0  0  0
    0.8835    0.6552    0.0000 O   0  0  0  0  0  0  0  0  0  0  0  0
    2.2741    0.0930    0.0000 C   0  0  0  0  0  0  0  0  0  0  0  0
    2.4826   -1.3924    0.0000 O   0  0  0  0  0  0  0  0  0  0  0  0
    3.4564    1.0162    0.0000 C   0  0  0  0  0  0  0  0  0  0  0  0
    4.2510   -0.2560    0.0000 C   0  0  0  0  0  0  0  0  0  0  0  0
    3.5465   -1.5803    0.0000 C   0  0  0  0  0  0  0  0  0  0  0  0
    4.3411   -2.8525    0.0000 C   0  0  0  0  0  0  0  0  0  0  0  0
    5.8402   -2.8005    0.0000 C   0  0  0  0  0  0  0  0  0  0  0  0
    6.5447   -1.4762    0.0000 C   0  0  0  0  0  0  0  0  0  0  0  0
    5.7501   -0.2040    0.0000 C   0  0  0  0  0  0  0  0  0  0  0  0
    2.4146    2.0955    0.0000 C   0  0  0  0  0  0  0  0  0  0  0  0
    3.1191    3.4197    0.0000 C   0  0  0  0  0  0  0  0  0  0  0  0
    4.5963    3.1590    0.0000 C   0  0  0  0  0  0  0  0  0  0  0  0
    4.8047    1.6735    0.0000 C   0  0  0  0  0  0  0  0  0  0  0  0
  1  2  1  0
  2  3  1  0
  3  4  1  0
  4  5  1  0
  3  6  1  0
  6  7  1  0
  7  8  1  0
  8  9  1  0
  9 10  1  0
 10 11  1  0
 11 12  1  0
 12 13  2  0
 12 14  1  0
 14 15  1  0
 15 16  2  0
 16 17  1  0
 17 18  2  0
 18 19  1  0
 19 20  2  0
 14 21  1  0
 21 22  1  0
 22 23  1  0
 23 24  1  0
 24 14  1  0
 20 15  1  0
M  END
> <Identifier>
PENTOXYVERINE

> <hERG>
1

$$$$

     RDKit          2D

 23 26  0  0  0  0  0  0  0  0999 V2000
   -4.0187   -3.1808    0.0000 F   0  0  0  0  0  0  0  0  0  0  0  0
   -3.6457   -1.7279    0.0000 C   0  0  0  0  0  0  0  0  0  0  0  0
   -4.7175   -0.6784    0.0000 C   0  0  0  0  0  0  0  0  0  0  0  0
   -4.3445    0.7744    0.0000 C   0  0  0  0  0  0  0  0  0  0  0  0
   -2.8998    1.1779    0.0000 C   0  0  0  0  0  0  0  0  0  0  0  0
   -1.8280    0.1284    0.0000 C   0  0  0  0  0  0  0  0  0  0  0  0
   -0.3310    0.2227    0.0000 C   0  0  0  0  0  0  0  0  0  0  0  0
    0.4727    1.4892    0.0000 C   0  0  0  0  0  0  0  0  0  0  0  0
    1.9714    1.4265    0.0000 C   0  0  0  0  0  0  0  0  0  0  0  0
    2.7751    2.6930    0.0000 N   0  0  0  0  0  4  0  0  0  0  0  0
    2.0801    4.0223    0.0000 C   0  0  0  0  0  0  0  0  0  0  0  0
    0.5814    4.0850    0.0000 C   0  0  0  0  0  0  0  0  0  0  0  0
   -0.2223    2.8185    0.0000 C   0  0  0  0  0  0  0  0  0  0  0  0
   -1.7210    2.8812    0.0000 F   0  0  0  0  0  0  0  0  0  0  0  0
    0.2213   -1.1720    0.0000 C   0  0  0  0  0  0  0  0  0  0  0  0
    1.6741   -1.5449    0.0000 C   0  0  0  0  0  0  0  0  0  0  0  0
    2.0776   -2.9897    0.0000 C   0  0  0  0  0  0  0  0  0  0  0  0
    3.5305   -3.3626    0.0000 C   0  0  0  0  0  0  0  0  0  0  0  0
    4.5799   -2.2909    0.0000 C   0  0  0  0  0  0  0  0  0  0  0  0
    4.1765   -0.8462    0.0000 C   0  0  0  0  0  0  0  0  0  0  0  0
    2.7236   -0.4732    0.0000 C   0  0  0  0  0  0  0  0  0  0  0  0
   -0.9345   -2.1281    0.0000 N   0  0  0  0  0  0  0  0  0  0  0  0
   -2.2010   -1.3245    0.0000 C   0  0  0  0  0  0  0  0  0  0  0  0
  1  2  1  0
  2  3  2  0
  3  4  1  0
  4  5  2  0
  5  6  1  0
  6  7  1  0
  8  7  1  1
  8  9  1  0
  9 10  1  0
 10 11  1  0
 11 12  1  0
 12 13  1  0
 13 14  1  1
  7 15  2  0
 15 16  1  0
 16 17  2  0
 17 18  1  0
 18 19  2  0
 19 20  1  0
 20 21  2  0
 15 22  1  0
 22 23  1  0
 23  2  1  0
 23  6  2  0
 13  8  1  0
 21 16  1  0
M  CHG  1  10   1
M  END
> <Identifier>
WOMBAT31

> <hERG>
1

$$$$

     RDKit          2D

 25 28  0  0  0  0  0  0  0  0999 V2000
   -2.3045    1.3433    0.0000 Cl  0  0  0  0  0  0  0  0  0  0  0  0
   -1.5989    1.7144    0.0000 C   0  0  0  0  0  0  0  0  0  0  0  0
   -1.9043    3.1829    0.0000 C   0  0  0  0  0  0  0  0  0  0  0  0
   -0.7852    4.1817    0.0000 C   0  0  0  0  0  0  0  0  0  0  0  0
    0.6393    3.7119    0.0000 C   0  0  0  0  0  0  0  0  0  0  0  0
    0.9447    2.2433    0.0000 C   0  0  0  0  0  0  0  0  0  0  0  0
   -0.1744    1.2445    0.0000 C   0  0  0  0  0  0  0  0  0  0  0  0
    0.1310   -0.2240    0.0000 C   0  0  0  0  0  0  0  0  0  0  0  0
    1.5996    0.0813    0.0000 C   0  0  0  0  0  0  0  0  0  0  0  0
    2.5983   -1.0378    0.0000 C   0  0  0  0  0  0  0  0  0  0  0  0
    4.0669   -0.7324    0.0000 C   0  0  0  0  0  0  0  0  0  0  0  0
    4.5367    0.6921    0.0000 C   0  0  0  0  0  0  0  0  0  0  0  0
    3.5380    1.8112    0.0000 C   0  0  0  0  0  0  0  0  0  0  0  0
    2.0694    1.5059    0.0000 C   0  0  0  0  0  0  0  0  0  0  0  0
   -1.3376   -0.5294    0.0000 C   0  0  0  0  0  0  0  0  0  0  0  0
   -1.8074   -1.9540    0.0000 C   0  0  0  0  0  0  0  0  0  0  0  0
   -3.2760   -2.2593    0.0000 C   0  0  0  0  0  0  0  0  0  0  0  0
   -4.2748   -1.1402    0.0000 C   0  0  0  0  0  0  0  0  0  0  0  0
   -3.8050    0.2843    0.0000 C   0  0  0  0  0  0  0  0  0  0  0  0
   -2.3364    0.5897    0.0000 C   0  0  0  0  0  0  0  0  0  0  0  0
    0.4364   -1.6926    0.0000 N   0  0  0  0  0  0  0  0  0  0  0  0
    1.8040   -2.3088    0.0000 C   0  0  0  0  0  0  0  0  0  0  0  0
    1.6406   -3.7999    0.0000 C   0  0  0  0  0  0  0  0  0  0  0  0
    0.1720   -4.1052    0.0000 N   0  0  0  0  0  0  0  0  0  0  0  0
   -0.5723   -2.8029    0.0000 C   0  0  0  0  0  0  0  0  0  0  0  0
  1  2  1  0
  2  3  2  0
  3  4  1  0
  4  5  2  0
  5  6  1  0
  6  7  2  0
  7  8  1  0
  8  9  1  0
  9 10  2  0
 10 11  1  0
 11 12  2  0
 12 13  1  0
 13 14  2  0
  8 15  1  0
 15 16  2  0
 16 17  1  0
 17 18  2  0
 18 19  1  0
 19 20  2  0
  8 21  1  0
 21 22  1  0
 22 23  2  0
 23 24  1  0
 24 25  2  0
  7  2  1  0
 14  9  1  0
 20 15  1  0
 25 21  1  0
M  END
> <Identifier>
CLOTRIMAZOLE

> <hERG>
1

$$$$

     RDKit          2D

 21 24  0  0  0  0  0  0  0  0999 V2000
    6.3729    1.9689    0.0000 C   0  0  0  0  0  0  0  0  0  0  0  0
    5.1705    1.0721    0.0000 N   0  0  0  0  0  4  0  0  0  0  0  0
    3.7927    1.6651    0.0000 C   0  0  0  0  0  0  0  0  0  0  0  0
    2.5903    0.7683    0.0000 C   0  0  0  0  0  0  0  0  0  0  0  0
    1.2124    1.3612    0.0000 C   0  0  0  0  0  0  0  0  0  0  0  0
    0.0100    0.4645    0.0000 C   0  0  0  0  0  0  0  0  0  0  0  0
   -0.6790    0.0136    0.0000 C   0  0  0  0  0  0  0  0  0  0  0  0
   -1.7662   -0.7973    0.0000 C   0  0  0  0  0  0  0  0  0  0  0  0
   -2.3948   -1.3290    0.0000 C   0  0  0  0  0  0  0  0  0  0  0  0
   -2.5702    0.1607    0.0000 C   0  0  0  0  0  0  0  0  0  0  0  0
   -3.9481    0.7536    0.0000 C   0  0  0  0  0  0  0  0  0  0  0  0
   -4.1235    2.2433    0.0000 C   0  0  0  0  0  0  0  0  0  0  0  0
   -2.9211    3.1401    0.0000 C   0  0  0  0  0  0  0  0  0  0  0  0
   -1.5432    2.5471    0.0000 C   0  0  0  0  0  0  0  0  0  0  0  0
   -1.3678    1.0574    0.0000 C   0  0  0  0  0  0  0  0  0  0  0  0
   -1.0170   -1.9220    0.0000 C   0  0  0  0  0  0  0  0  0  0  0  0
   -0.8416   -3.4117    0.0000 C   0  0  0  0  0  0  0  0  0  0  0  0
    0.5362   -4.0046    0.0000 C   0  0  0  0  0  0  0  0  0  0  0  0
    1.7387   -3.1079    0.0000 C   0  0  0  0  0  0  0  0  0  0  0  0
    1.5633   -1.6182    0.0000 C   0  0  0  0  0  0  0  0  0  0  0  0
    0.1854   -1.0252    0.0000 C   0  0  0  0  0  0  0  0  0  0  0  0
  1  2  1  0
  2  3  1  0
  3  4  1  0
  4  5  1  0
  5  6  1  0
  6  7  1  0
  7  8  1  0
  8  9  1  0
  9 10  1  0
 10 11  2  0
 11 12  1  0
 12 13  2  0
 13 14  1  0
 14 15  2  0
  9 16  1  0
 16 17  2  0
 17 18  1  0
 18 19  2  0
 19 20  1  0
 20 21  2  0
 15  6  1  0
 21 16  1  0
 21  6  1  0
 15 10  1  0
M  CHG  1   2   1
M  END
> <Identifier>
MAPROTILINE

> <hERG>
1

$$$$

     RDKit          2D

 32 33  0  0  0  0  0  0  0  0999 V2000
  -10.8816   -0.4189    0.0000 C   0  0  0  0  0  0  0  0  0  0  0  0
   -9.6003   -1.1988    0.0000 O   0  0  0  0  0  0  0  0  0  0  0  0
   -8.2843   -0.4791    0.0000 C   0  0  0  0  0  0  0  0  0  0  0  0
   -8.2495    1.0205    0.0000 C   0  0  0  0  0  0  0  0  0  0  0  0
   -6.9334    1.7402    0.0000 C   0  0  0  0  0  0  0  0  0  0  0  0
   -5.6521    0.9603    0.0000 C   0  0  0  0  0  0  0  0  0  0  0  0
   -4.3361    1.6800    0.0000 C   0  0  0  0  0  0  0  0  0  0  0  0
   -3.0548    0.9001    0.0000 C   0  0  0  0  0  0  0  0  0  0  0  0
   -1.7387    1.6198    0.0000 N   0  0  0  0  0  4  0  0  0  0  0  0
   -0.4574    0.8399    0.0000 C   0  0  0  0  0  0  0  0  0  0  0  0
    0.8587    1.5596    0.0000 C   0  0  0  0  0  0  0  0  0  0  0  0
    2.1400    0.7797    0.0000 C   0  0  0  0  0  0  0  0  0  0  0  0
    3.4561    1.4994    0.0000 C   0  0  0  0  0  0  0  0  0  0  0  0
    2.7364    2.8154    0.0000 C   0  0  0  0  0  0  0  0  0  0  0  0
    2.0167    4.1315    0.0000 N   0  0  0  0  0  0  0  0  0  0  0  0
    4.1758    0.1833    0.0000 C   0  0  0  0  0  0  0  0  0  0  0  0
    3.3959   -1.0980    0.0000 C   0  0  0  0  0  0  0  0  0  0  0  0
    4.1156   -2.4141    0.0000 C   0  0  0  0  0  0  0  0  0  0  0  0
    5.6152   -2.4488    0.0000 C   0  0  0  0  0  0  0  0  0  0  0  0
    6.3349   -3.7649    0.0000 O   0  0  0  0  0  0  0  0  0  0  0  0
    5.5550   -5.0462    0.0000 C   0  0  0  0  0  0  0  0  0  0  0  0
    6.3951   -1.1675    0.0000 C   0  0  0  0  0  0  0  0  0  0  0  0
    7.8947   -1.2023    0.0000 O   0  0  0  0  0  0  0  0  0  0  0  0
    8.6746    0.0790    0.0000 C   0  0  0  0  0  0  0  0  0  0  0  0
    5.6754    0.1485    0.0000 C   0  0  0  0  0  0  0  0  0  0  0  0
    4.7721    2.2191    0.0000 C   0  0  0  0  0  0  0  0  0  0  0  0
    4.8069    3.7187    0.0000 C   0  0  0  0  0  0  0  0  0  0  0  0
    6.0535    1.4392    0.0000 C   0  0  0  0  0  0  0  0  0  0  0  0
   -5.6869   -0.5393    0.0000 C   0  0  0  0  0  0  0  0  0  0  0  0
   -7.0030   -1.2590    0.0000 C   0  0  0  0  0  0  0  0  0  0  0  0
   -7.0377   -2.7586    0.0000 O   0  0  0  0  0  0  0  0  0  0  0  0
   -5.7564   -3.5385    0.0000 C   0  0  0  0  0  0  0  0  0  0  0  0
  1  2  1  0
  2  3  1  0
  3  4  2  0
  4  5  1  0
  5  6  2  0
  6  7  1  0
  7  8  1  0
  8  9  1  0
  9 10  1  0
 10 11  1  0
 11 12  1  0
 13 12  1  6
 13 14  1  0
 14 15  3  0
 13 16  1  0
 16 17  2  0
 17 18  1  0
 18 19  2  0
 19 20  1  0
 20 21  1  0
 19 22  1  0
 22 23  1  0
 23 24  1  0
 22 25  2  0
 13 26  1  0
 26 27  1  0
 26 28  1  0
  6 29  1  0
 29 30  2  0
 30 31  1  0
 31 32  1  0
 30  3  1  0
 25 16  1  0
M  CHG  1   9   1
M  END
> <Identifier>
NORVERAPAMIL

> <hERG>
1

$$$$

     RDKit          2D

 28 31  0  0  0  0  0  0  0  0999 V2000
    3.3638   -2.8872    0.0000 N   0  0  0  0  0  0  0  0  0  0  0  0
    1.8803   -2.6655    0.0000 C   0  0  0  0  0  0  0  0  0  0  0  0
    0.3968   -2.4438    0.0000 C   0  0  0  0  0  0  0  0  0  0  0  0
   -0.5370   -3.6177    0.0000 C   0  0  0  0  0  0  0  0  0  0  0  0
   -2.0205   -3.3960    0.0000 C   0  0  0  0  0  0  0  0  0  0  0  0
   -2.5703   -2.0004    0.0000 C   0  0  0  0  0  0  0  0  0  0  0  0
   -4.0538   -1.7787    0.0000 C   0  0  0  0  0  0  0  0  0  0  0  0
   -4.6036   -0.3831    0.0000 N   0  0  0  0  0  0  0  0  0  0  0  0
   -6.0558   -0.0076    0.0000 C   0  0  0  0  0  0  0  0  0  0  0  0
   -6.1474    1.4896    0.0000 N   0  0  0  0  0  0  0  0  0  0  0  0
   -4.7518    2.0394    0.0000 C   0  0  0  0  0  0  0  0  0  0  0  0
   -3.7977    0.8820    0.0000 C   0  0  0  0  0  0  0  0  0  0  0  0
   -2.3005    0.9736    0.0000 C   0  0  0  0  0  0  0  0  0  0  0  0
   -1.6312    2.3160    0.0000 N   0  0  0  0  0  4  0  0  0  0  0  0
   -0.1340    2.4076    0.0000 C   0  0  0  0  0  0  0  0  0  0  0  0
    0.6719    3.6727    0.0000 C   0  0  0  0  0  0  0  0  0  0  0  0
    2.1241    3.2972    0.0000 C   0  0  0  0  0  0  0  0  0  0  0  0
    2.2158    1.8000    0.0000 N   0  0  0  0  0  0  0  0  0  0  0  0
    3.4809    0.9940    0.0000 C   0  0  0  0  0  0  0  0  0  0  0  0
    3.4155   -0.5045    0.0000 C   0  0  0  0  0  0  0  0  0  0  0  0
    4.6806   -1.3105    0.0000 C   0  0  0  0  0  0  0  0  0  0  0  0
    6.0111   -0.6178    0.0000 N   0  0  0  0  0  0  0  0  0  0  0  0
    6.0765    0.8808    0.0000 C   0  0  0  0  0  0  0  0  0  0  0  0
    4.8114    1.6867    0.0000 C   0  0  0  0  0  0  0  0  0  0  0  0
    0.8201    1.2502    0.0000 C   0  0  0  0  0  0  0  0  0  0  0  0
    0.4446   -0.2020    0.0000 O   0  0  0  0  0  0  0  0  0  0  0  0
   -1.6365   -0.8265    0.0000 C   0  0  0  0  0  0  0  0  0  0  0  0
   -0.1530   -1.0482    0.0000 C   0  0  0  0  0  0  0  0  0  0  0  0
  1  2  3  0
  2  3  1  0
  3  4  2  0
  4  5  1  0
  5  6  2  0
  6  7  1  0
  7  8  1  0
  8  9  1  0
  9 10  2  0
 10 11  1  0
 11 12  2  0
 12 13  1  0
 13 14  1  0
 15 14  1  1
 15 16  1  0
 16 17  1  0
 17 18  1  0
 18 19  1  0
 19 20  2  0
 20 21  1  0
 21 22  2  0
 22 23  1  0
 23 24  2  0
 18 25  1  0
 25 26  2  0
  6 27  1  0
 27 28  2  0
 28  3  1  0
 12  8  1  0
 25 15  1  0
 24 19  1  0
M  CHG  1  14   1
M  END
> <Identifier>
WOMBAT20

> <hERG>
1

$$$$

     RDKit          2D

 22 25  0  0  0  0  0  0  0  0999 V2000
   -3.1453    1.8205    0.0000 C   0  0  0  0  0  0  0  0  0  0  0  0
   -4.1657    0.7211    0.0000 C   0  0  0  0  0  0  0  0  0  0  0  0
   -5.6549    0.9004    0.0000 N   0  0  0  0  0  0  0  0  0  0  0  0
   -6.2856   -0.4606    0.0000 C   0  0  0  0  0  0  0  0  0  0  0  0
   -5.1862   -1.4810    0.0000 N   0  0  0  0  0  0  0  0  0  0  0  0
   -3.8760   -0.7507    0.0000 C   0  0  0  0  0  0  0  0  0  0  0  0
   -2.5150   -1.3814    0.0000 C   0  0  0  0  0  0  0  0  0  0  0  0
   -1.2883   -0.5182    0.0000 N   0  0  0  0  0  0  0  0  0  0  0  0
   -1.4226    0.9758    0.0000 C   0  0  0  0  0  0  0  0  0  0  0  0
   -0.1959    1.8391    0.0000 C   0  0  0  0  0  0  0  0  0  0  0  0
    1.1651    1.2083    0.0000 C   0  0  0  0  0  0  0  0  0  0  0  0
    1.2993   -0.2856    0.0000 C   0  0  0  0  0  0  0  0  0  0  0  0
    2.7617   -0.6196    0.0000 C   0  0  0  0  0  0  0  0  0  0  0  0
    3.4920   -1.9298    0.0000 C   0  0  0  0  0  0  0  0  0  0  0  0
    4.9918   -1.9525    0.0000 C   0  0  0  0  0  0  0  0  0  0  0  0
    5.7613   -0.6649    0.0000 C   0  0  0  0  0  0  0  0  0  0  0  0
    5.0310    0.6453    0.0000 C   0  0  0  0  0  0  0  0  0  0  0  0
    3.5312    0.6679    0.0000 C   0  0  0  0  0  0  0  0  0  0  0  0
    2.5444    1.7977    0.0000 N   0  0  0  0  0  0  0  0  0  0  0  0
    2.8784    3.2600    0.0000 C   0  0  0  0  0  0  0  0  0  0  0  0
    0.0726   -1.1489    0.0000 C   0  0  0  0  0  0  0  0  0  0  0  0
    0.2069   -2.6429    0.0000 O   0  0  0  0  0  0  0  0  0  0  0  0
  1  2  1  0
  2  3  1  0
  3  4  2  0
  4  5  1  0
  5  6  1  0
  6  7  1  0
  7  8  1  0
  8  9  1  0
  9 10  1  0
 10 11  1  0
 11 12  2  0
 12 13  1  0
 13 14  2  0
 14 15  1  0
 15 16  2  0
 16 17  1  0
 17 18  2  0
 18 19  1  0
 19 20  1  0
 12 21  1  0
 21 22  2  0
  6  2  2  0
 21  8  1  0
 19 11  1  0
 18 13  1  0
M  END
> <Identifier>
ALOSETRON

> <hERG>
1

$$$$

     RDKit          2D

 32 35  0  0  0  0  0  0  0  0999 V2000
  -11.1620    0.8442    0.0000 C   0  0  0  0  0  0  0  0  0  0  0  0
  -10.1395   -0.2533    0.0000 C   0  0  0  0  0  0  0  0  0  0  0  0
   -8.6778    0.0835    0.0000 N   0  0  0  0  0  0  0  0  0  0  0  0
   -8.2386    1.5177    0.0000 C   0  0  0  0  0  0  0  0  0  0  0  0
   -9.2611    2.6152    0.0000 C   0  0  0  0  0  0  0  0  0  0  0  0
   -7.6553   -1.0140    0.0000 C   0  0  0  0  0  0  0  0  0  0  0  0
   -6.1936   -0.6772    0.0000 C   0  0  0  0  0  0  0  0  0  0  0  0
   -5.7544    0.7571    0.0000 C   0  0  0  0  0  0  0  0  0  0  0  0
   -4.2927    1.0939    0.0000 C   0  0  0  0  0  0  0  0  0  0  0  0
   -3.2702   -0.0036    0.0000 C   0  0  0  0  0  0  0  0  0  0  0  0
   -3.7094   -1.4379    0.0000 C   0  0  0  0  0  0  0  0  0  0  0  0
   -5.1711   -1.7747    0.0000 C   0  0  0  0  0  0  0  0  0  0  0  0
   -2.6868   -2.5354    0.0000 C   0  0  0  0  0  0  0  0  0  0  0  0
   -1.2251   -2.1986    0.0000 C   0  0  0  0  0  0  0  0  0  0  0  0
   -0.7860   -0.7643    0.0000 C   0  0  0  0  0  0  0  0  0  0  0  0
    0.6757   -0.4275    0.0000 N   0  0  0  0  0  0  0  0  0  0  0  0
    1.6983   -1.5250    0.0000 C   0  0  0  0  0  0  0  0  0  0  0  0
    3.1600   -1.1882    0.0000 C   0  0  0  0  0  0  0  0  0  0  0  0
    3.5991    0.2461    0.0000 N   0  0  0  0  0  0  0  0  0  0  0  0
    5.0608    0.5828    0.0000 C   0  0  0  0  0  0  0  0  0  0  0  0
    6.0834   -0.5146    0.0000 C   0  0  0  0  0  0  0  0  0  0  0  0
    7.5451   -0.1778    0.0000 C   0  0  0  0  0  0  0  0  0  0  0  0
    8.5676   -1.2753    0.0000 C   0  0  0  0  0  0  0  0  0  0  0  0
   10.0293   -0.9385    0.0000 C   0  0  0  0  0  0  0  0  0  0  0  0
   10.4685    0.4957    0.0000 C   0  0  0  0  0  0  0  0  0  0  0  0
   11.9302    0.8325    0.0000 Cl  0  0  0  0  0  0  0  0  0  0  0  0
    9.4460    1.5932    0.0000 C   0  0  0  0  0  0  0  0  0  0  0  0
    7.9843    1.2564    0.0000 C   0  0  0  0  0  0  0  0  0  0  0  0
    2.5766    1.3435    0.0000 C   0  0  0  0  0  0  0  0  0  0  0  0
    1.1149    1.0067    0.0000 C   0  0  0  0  0  0  0  0  0  0  0  0
    0.0924    2.1042    0.0000 O   0  0  0  0  0  0  0  0  0  0  0  0
   -1.8085    0.3332    0.0000 C   0  0  0  0  0  0  0  0  0  0  0  0
  1  2  1  0
  2  3  1  0
  3  4  1  0
  4  5  1  0
  3  6  1  0
  6  7  1  0
  7  8  2  0
  8  9  1  0
  9 10  2  0
 10 11  1  0
 11 12  2  0
 11 13  1  0
 13 14  1  0
 14 15  1  0
 15 16  1  1
 16 17  1  0
 17 18  1  0
 18 19  1  0
 19 20  1  0
 20 21  1  0
 21 22  1  0
 22 23  2  0
 23 24  1  0
 24 25  2  0
 25 26  1  0
 25 27  1  0
 27 28  2  0
 19 29  1  0
 29 30  1  0
 30 31  2  0
 15 32  1  0
 12  7  1  0
 30 16  1  0
 32 10  1  0
 28 22  1  0
M  END
> <Identifier>
AMINOMETHYL TETRAHYDRONAPHTHALENE KETOPIPERAZINE 2A

> <hERG>
1

$$$$

     RDKit          2D

 31 34  0  0  0  0  0  0  0  0999 V2000
  -10.7842    0.7793    0.0000 C   0  0  0  0  0  0  0  0  0  0  0  0
   -9.7524   -0.3094    0.0000 C   0  0  0  0  0  0  0  0  0  0  0  0
   -8.2936    0.0398    0.0000 N   0  0  0  0  0  0  0  0  0  0  0  0
   -7.8666    1.4777    0.0000 C   0  0  0  0  0  0  0  0  0  0  0  0
   -8.8984    2.5665    0.0000 C   0  0  0  0  0  0  0  0  0  0  0  0
   -7.2618   -1.0489    0.0000 C   0  0  0  0  0  0  0  0  0  0  0  0
   -5.8030   -0.6997    0.0000 C   0  0  0  0  0  0  0  0  0  0  0  0
   -5.3760    0.7382    0.0000 C   0  0  0  0  0  0  0  0  0  0  0  0
   -3.9172    1.0874    0.0000 C   0  0  0  0  0  0  0  0  0  0  0  0
   -2.8854   -0.0013    0.0000 C   0  0  0  0  0  0  0  0  0  0  0  0
   -3.3124   -1.4393    0.0000 C   0  0  0  0  0  0  0  0  0  0  0  0
   -4.7712   -1.7885    0.0000 C   0  0  0  0  0  0  0  0  0  0  0  0
   -2.2806   -2.5280    0.0000 C   0  0  0  0  0  0  0  0  0  0  0  0
   -0.8218   -2.1788    0.0000 C   0  0  0  0  0  0  0  0  0  0  0  0
   -0.3948   -0.7408    0.0000 C   0  0  0  0  0  0  0  0  0  0  0  0
    1.0640   -0.3916    0.0000 N   0  0  0  0  0  0  0  0  0  0  0  0
    2.0958   -1.4804    0.0000 C   0  0  0  0  0  0  0  0  0  0  0  0
    3.5546   -1.1312    0.0000 C   0  0  0  0  0  0  0  0  0  0  0  0
    3.9815    0.3068    0.0000 N   0  0  0  0  0  0  0  0  0  0  0  0
    5.4403    0.6560    0.0000 C   0  0  0  0  0  0  0  0  0  0  0  0
    6.4721   -0.4327    0.0000 C   0  0  0  0  0  0  0  0  0  0  0  0
    7.9309   -0.0835    0.0000 C   0  0  0  0  0  0  0  0  0  0  0  0
    8.9627   -1.1723    0.0000 C   0  0  0  0  0  0  0  0  0  0  0  0
   10.4215   -0.8231    0.0000 C   0  0  0  0  0  0  0  0  0  0  0  0
   10.8485    0.6149    0.0000 C   0  0  0  0  0  0  0  0  0  0  0  0
    9.8167    1.7036    0.0000 C   0  0  0  0  0  0  0  0  0  0  0  0
    8.3579    1.3544    0.0000 C   0  0  0  0  0  0  0  0  0  0  0  0
    2.9497    1.3955    0.0000 C   0  0  0  0  0  0  0  0  0  0  0  0
    1.4909    1.0463    0.0000 C   0  0  0  0  0  0  0  0  0  0  0  0
    0.4591    2.1351    0.0000 O   0  0  0  0  0  0  0  0  0  0  0  0
   -1.4266    0.3479    0.0000 C   0  0  0  0  0  0  0  0  0  0  0  0
  1  2  1  0
  2  3  1  0
  3  4  1  0
  4  5  1  0
  3  6  1  0
  6  7  1  0
  7  8  2  0
  8  9  1  0
  9 10  2  0
 10 11  1  0
 11 12  2  0
 11 13  1  0
 13 14  1  0
 14 15  1  0
 15 16  1  1
 16 17  1  0
 17 18  1  0
 18 19  1  0
 19 20  1  0
 20 21  1  0
 21 22  1  0
 22 23  1  0
 23 24  1  0
 24 25  1  0
 25 26  1  0
 26 27  1  0
 19 28  1  0
 28 29  1  0
 29 30  2  0
 15 31  1  0
 12  7  1  0
 29 16  1  0
 31 10  1  0
 27 22  1  0
M  END
> <Identifier>
AMINOMETHYL TETRAHYDRONAPHTHALENE KETOPIPERAZINE 2C

> <hERG>
1

$$$$

     RDKit          2D

 21 23  0  0  0  0  0  0  0  0999 V2000
   -5.7199   -2.5061    0.0000 C   0  0  0  0  0  0  0  0  0  0  0  0
   -4.6183   -1.4881    0.0000 N   0  0  0  0  0  4  0  0  0  0  0  0
   -4.9490   -0.0251    0.0000 C   0  0  0  0  0  0  0  0  0  0  0  0
   -3.1858   -1.9332    0.0000 C   0  0  0  0  0  0  0  0  0  0  0  0
   -2.0841   -0.9152    0.0000 C   0  0  0  0  0  0  0  0  0  0  0  0
   -0.6517   -1.3602    0.0000 C   0  0  0  0  0  0  0  0  0  0  0  0
    0.4500   -0.3422    0.0000 N   0  0  0  0  0  0  0  0  0  0  0  0
    1.8452   -0.8931    0.0000 C   0  0  0  0  0  0  0  0  0  0  0  0
    1.8421   -2.3931    0.0000 C   0  0  0  0  0  0  0  0  0  0  0  0
    3.1396   -3.1457    0.0000 C   0  0  0  0  0  0  0  0  0  0  0  0
    4.4402   -2.3984    0.0000 C   0  0  0  0  0  0  0  0  0  0  0  0
    4.4432   -0.8984    0.0000 C   0  0  0  0  0  0  0  0  0  0  0  0
    3.1457   -0.1457    0.0000 C   0  0  0  0  0  0  0  0  0  0  0  0
    3.3723    1.3370    0.0000 C   0  0  0  0  0  0  0  0  0  0  0  0
    2.3543    2.4387    0.0000 C   0  0  0  0  0  0  0  0  0  0  0  0
    0.8583    2.3297    0.0000 C   0  0  0  0  0  0  0  0  0  0  0  0
    0.2102    3.6824    0.0000 C   0  0  0  0  0  0  0  0  0  0  0  0
   -1.2854    3.7976    0.0000 C   0  0  0  0  0  0  0  0  0  0  0  0
   -2.1329    2.5600    0.0000 C   0  0  0  0  0  0  0  0  0  0  0  0
   -1.4848    1.2072    0.0000 C   0  0  0  0  0  0  0  0  0  0  0  0
    0.0108    1.0920    0.0000 C   0  0  0  0  0  0  0  0  0  0  0  0
  1  2  1  0
  2  3  1  0
  2  4  1  0
  4  5  1  0
  5  6  1  0
  6  7  1  0
  7  8  1  0
  8  9  2  0
  9 10  1  0
 10 11  2  0
 11 12  1  0
 12 13  2  0
 13 14  1  0
 14 15  1  0
 15 16  1  0
 16 17  2  0
 17 18  1  0
 18 19  2  0
 19 20  1  0
 20 21  2  0
 21  7  1  0
 13  8  1  0
 21 16  1  0
M  CHG  1   2   1
M  END
> <Identifier>
IMIPRAMINE

> <hERG>
1

$$$$

     RDKit          2D

 21 23  0  0  0  0  0  0  0  0999 V2000
   -5.7199   -2.5061    0.0000 C   0  0  0  0  0  0  0  0  0  0  0  0
   -4.6183   -1.4881    0.0000 N   0  0  0  0  0  0  0  0  0  0  0  0
   -4.9490   -0.0251    0.0000 C   0  0  0  0  0  0  0  0  0  0  0  0
   -3.1858   -1.9332    0.0000 C   0  0  0  0  0  0  0  0  0  0  0  0
   -2.0841   -0.9152    0.0000 C   0  0  0  0  0  0  0  0  0  0  0  0
   -0.6517   -1.3602    0.0000 C   0  0  0  0  0  0  0  0  0  0  0  0
    0.4500   -0.3422    0.0000 N   0  0  0  0  0  0  0  0  0  0  0  0
    1.8452   -0.8931    0.0000 C   0  0  0  0  0  0  0  0  0  0  0  0
    1.8421   -2.3931    0.0000 C   0  0  0  0  0  0  0  0  0  0  0  0
    3.1396   -3.1457    0.0000 C   0  0  0  0  0  0  0  0  0  0  0  0
    4.4402   -2.3984    0.0000 C   0  0  0  0  0  0  0  0  0  0  0  0
    4.4432   -0.8984    0.0000 C   0  0  0  0  0  0  0  0  0  0  0  0
    3.1457   -0.1457    0.0000 C   0  0  0  0  0  0  0  0  0  0  0  0
    3.3723    1.3370    0.0000 C   0  0  0  0  0  0  0  0  0  0  0  0
    2.3543    2.4387    0.0000 C   0  0  0  0  0  0  0  0  0  0  0  0
    0.8583    2.3297    0.0000 C   0  0  0  0  0  0  0  0  0  0  0  0
    0.2102    3.6824    0.0000 C   0  0  0  0  0  0  0  0  0  0  0  0
   -1.2854    3.7976    0.0000 C   0  0  0  0  0  0  0  0  0  0  0  0
   -2.1329    2.5600    0.0000 C   0  0  0  0  0  0  0  0  0  0  0  0
   -1.4848    1.2072    0.0000 C   0  0  0  0  0  0  0  0  0  0  0  0
    0.0108    1.0920    0.0000 C   0  0  0  0  0  0  0  0  0  0  0  0
  1  2  1  0
  2  3  1  0
  2  4  1  0
  4  5  1  0
  5  6  1  0
  6  7  1  0
  7  8  1  0
  8  9  2  0
  9 10  1  0
 10 11  2  0
 11 12  1  0
 12 13  2  0
 13 14  1  0
 14 15  1  0
 15 16  1  0
 16 17  2  0
 17 18  1  0
 18 19  2  0
 19 20  1  0
 20 21  2  0
 21  7  1  0
 13  8  1  0
 21 16  1  0
M  END
> <Identifier>
IMIPRAMINE HYDROCHLORIDE

> <hERG>
1

$$$$

     RDKit          2D

 26 29  0  0  0  0  0  0  0  0999 V2000
   -0.9547    3.3206    0.0000 N   0  0  0  0  0  0  0  0  0  0  0  0
   -2.2168    2.5100    0.0000 C   0  0  0  0  0  0  0  0  0  0  0  0
   -2.1458    1.0117    0.0000 C   0  0  0  0  0  0  0  0  0  0  0  0
   -3.4079    0.2010    0.0000 O   0  0  0  0  0  0  0  0  0  0  0  0
   -0.8128    0.3240    0.0000 N   0  0  0  0  0  0  0  0  0  0  0  0
    0.5271    0.9983    0.0000 C   0  0  0  0  0  0  0  0  0  0  0  0
    1.5825   -0.0677    0.0000 C   0  0  0  0  0  0  0  0  0  0  0  0
    3.0652    0.1595    0.0000 C   0  0  0  0  0  0  0  0  0  0  0  0
    4.0033   -1.0109    0.0000 C   0  0  0  0  0  0  0  0  0  0  0  0
    5.4860   -0.7837    0.0000 C   0  0  0  0  0  0  0  0  0  0  0  0
    6.4241   -1.9542    0.0000 F   0  0  0  0  0  0  0  0  0  0  0  0
    6.0305    0.6139    0.0000 C   0  0  0  0  0  0  0  0  0  0  0  0
    5.0924    1.7844    0.0000 C   0  0  0  0  0  0  0  0  0  0  0  0
    3.6097    1.5572    0.0000 C   0  0  0  0  0  0  0  0  0  0  0  0
    2.6716    2.7276    0.0000 F   0  0  0  0  0  0  0  0  0  0  0  0
    0.8948   -1.4008    0.0000 C   0  0  0  0  0  0  0  0  0  0  0  0
   -0.5855   -1.1587    0.0000 C   0  0  0  0  0  0  0  0  0  0  0  0
   -1.6515   -2.2140    0.0000 C   0  0  0  0  0  0  0  0  0  0  0  0
   -3.0984   -1.8185    0.0000 C   0  0  0  0  0  0  0  0  0  0  0  0
   -4.1644   -2.8739    0.0000 C   0  0  0  0  0  0  0  0  0  0  0  0
   -3.7835   -4.3247    0.0000 C   0  0  0  0  0  0  0  0  0  0  0  0
   -2.3365   -4.7202    0.0000 C   0  0  0  0  0  0  0  0  0  0  0  0
   -1.2706   -3.6649    0.0000 C   0  0  0  0  0  0  0  0  0  0  0  0
   -3.5499    3.1977    0.0000 C   0  0  0  0  0  0  0  0  0  0  0  0
   -5.0482    3.1267    0.0000 C   0  0  0  0  0  0  0  0  0  0  0  0
   -4.3605    4.4598    0.0000 C   0  0  0  0  0  0  0  0  0  0  0  0
  2  1  1  1
  2  3  1  0
  3  4  2  0
  3  5  1  0
  5  6  1  0
  6  7  1  0
  7  8  1  0
  8  9  2  0
  9 10  1  0
 10 11  1  0
 10 12  2  0
 12 13  1  0
 13 14  2  0
 14 15  1  0
  7 16  2  0
 16 17  1  0
 17 18  1  1
 18 19  2  0
 19 20  1  0
 20 21  2  0
 21 22  1  0
 22 23  2  0
  2 24  1  0
 24 25  1  0
 25 26  1  0
 17  5  1  0
 23 18  1  0
 26 24  1  0
 14  8  1  0
M  END
> <Identifier>
BMCL-16-2007-1777-19

> <hERG>
1

$$$$

     RDKit          2D

 19 21  0  0  0  0  0  0  0  0999 V2000
    2.3885    4.2963    0.0000 C   0  0  0  0  0  0  0  0  0  0  0  0
    2.8579    2.8717    0.0000 C   0  0  0  0  0  0  0  0  0  0  0  0
    1.8589    1.7528    0.0000 C   0  0  0  0  0  0  0  0  0  0  0  0
    0.3665    1.9034    0.0000 C   0  0  0  0  0  0  0  0  0  0  0  0
   -0.2379    0.5305    0.0000 N   0  0  0  0  0  0  0  0  0  0  0  0
   -1.7038    0.2126    0.0000 C   0  0  0  0  0  0  0  0  0  0  0  0
   -2.7122    1.3231    0.0000 C   0  0  0  0  0  0  0  0  0  0  0  0
   -4.1781    1.0051    0.0000 C   0  0  0  0  0  0  0  0  0  0  0  0
   -4.6356   -0.4234    0.0000 C   0  0  0  0  0  0  0  0  0  0  0  0
   -6.1016   -0.7414    0.0000 F   0  0  0  0  0  0  0  0  0  0  0  0
   -3.6273   -1.5339    0.0000 C   0  0  0  0  0  0  0  0  0  0  0  0
   -2.1614   -1.2159    0.0000 C   0  0  0  0  0  0  0  0  0  0  0  0
    0.8810   -0.4685    0.0000 C   0  0  0  0  0  0  0  0  0  0  0  0
    0.8872   -1.9685    0.0000 C   0  0  0  0  0  0  0  0  0  0  0  0
    2.1894   -2.7131    0.0000 C   0  0  0  0  0  0  0  0  0  0  0  0
    3.4853   -1.9577    0.0000 C   0  0  0  0  0  0  0  0  0  0  0  0
    4.7874   -2.7023    0.0000 Cl  0  0  0  0  0  0  0  0  0  0  0  0
    3.4790   -0.4577    0.0000 C   0  0  0  0  0  0  0  0  0  0  0  0
    2.1769    0.2869    0.0000 C   0  0  0  0  0  0  0  0  0  0  0  0
  1  2  1  0
  2  3  1  0
  3  4  2  0
  4  5  1  0
  5  6  1  0
  6  7  2  0
  7  8  1  0
  8  9  2  0
  9 10  1  0
  9 11  1  0
 11 12  2  0
  5 13  1  0
 13 14  2  0
 14 15  1  0
 15 16  2  0
 16 17  1  0
 16 18  1  0
 18 19  2  0
 19  3  1  0
 12  6  1  0
 19 13  1  0
M  END
> <Identifier>
BMCL20031829_22

> <hERG>
1

$$$$

     RDKit          2D

 28 31  0  0  0  0  0  0  0  0999 V2000
   -7.3653   -0.7220    0.0000 C   0  0  0  0  0  0  0  0  0  0  0  0
   -5.9270   -1.1480    0.0000 N   0  0  0  0  0  0  0  0  0  0  0  0
   -4.8391   -0.1153    0.0000 C   0  0  0  0  0  0  0  0  0  0  0  0
   -3.4008   -0.5413    0.0000 C   0  0  0  0  0  0  0  0  0  0  0  0
   -3.0505   -1.9998    0.0000 N   0  0  0  0  0  0  0  0  0  0  0  0
   -1.6123   -2.4257    0.0000 C   0  0  0  0  0  0  0  0  0  0  0  0
   -0.5243   -1.3931    0.0000 C   0  0  0  0  0  0  0  0  0  0  0  0
    0.9140   -1.8190    0.0000 C   0  0  0  0  0  0  0  0  0  0  0  0
    2.0020   -0.7864    0.0000 N   0  0  0  0  0  0  0  0  0  0  0  0
    3.4402   -1.2123    0.0000 C   0  0  0  0  0  0  0  0  0  0  0  0
    3.7905   -2.6708    0.0000 C   0  0  0  0  0  0  0  0  0  0  0  0
    5.2288   -3.0967    0.0000 C   0  0  0  0  0  0  0  0  0  0  0  0
    6.3168   -2.0641    0.0000 C   0  0  0  0  0  0  0  0  0  0  0  0
    5.9665   -0.6056    0.0000 C   0  0  0  0  0  0  0  0  0  0  0  0
    4.5282   -0.1797    0.0000 C   0  0  0  0  0  0  0  0  0  0  0  0
    4.1779    1.2788    0.0000 S   0  0  0  0  0  0  0  0  0  0  0  0
    2.7397    1.7048    0.0000 C   0  0  0  0  0  0  0  0  0  0  0  0
    2.3894    3.1633    0.0000 C   0  0  0  0  0  0  0  0  0  0  0  0
    0.9511    3.5892    0.0000 C   0  0  0  0  0  0  0  0  0  0  0  0
   -0.1369    2.5566    0.0000 C   0  0  0  0  0  0  0  0  0  0  0  0
   -1.5751    2.9825    0.0000 C   0  0  0  0  0  0  0  0  0  0  0  0
   -3.0134    3.4084    0.0000 F   0  0  0  0  0  0  0  0  0  0  0  0
   -1.1492    4.4208    0.0000 F   0  0  0  0  0  0  0  0  0  0  0  0
   -2.0010    1.5442    0.0000 F   0  0  0  0  0  0  0  0  0  0  0  0
    0.2134    1.0981    0.0000 C   0  0  0  0  0  0  0  0  0  0  0  0
    1.6517    0.6721    0.0000 C   0  0  0  0  0  0  0  0  0  0  0  0
   -4.1385   -3.0324    0.0000 C   0  0  0  0  0  0  0  0  0  0  0  0
   -5.5768   -2.6065    0.0000 C   0  0  0  0  0  0  0  0  0  0  0  0
  1  2  1  0
  2  3  1  0
  3  4  1  0
  4  5  1  0
  5  6  1  0
  6  7  1  0
  7  8  1  0
  8  9  1  0
  9 10  1  0
 10 11  2  0
 11 12  1  0
 12 13  2  0
 13 14  1  0
 14 15  2  0
 15 16  1  0
 16 17  1  0
 17 18  2  0
 18 19  1  0
 19 20  2  0
 20 21  1  0
 21 22  1  0
 21 23  1  0
 21 24  1  0
 20 25  1  0
 25 26  2  0
  5 27  1  0
 27 28  1  0
 28  2  1  0
 26  9  1  0
 15 10  1  0
 26 17  1  0
M  END
> <Identifier>
TRIFLUOPERAZINE HYDROCHLORIDE

> <hERG>
1

$$$$

     RDKit          2D

 34 38  0  0  0  0  0  0  0  0999 V2000
    0.7407   -3.2302    0.0000 O   0  0  0  0  0  0  0  0  0  0  0  0
    1.2895   -1.8342    0.0000 C   0  0  0  0  0  0  0  0  0  0  0  0
    0.3549   -0.6609    0.0000 N   0  0  0  0  0  0  0  0  0  0  0  0
   -1.1285   -0.8837    0.0000 C   0  0  0  0  0  0  0  0  0  0  0  0
   -2.0631    0.2895    0.0000 C   0  0  0  0  0  0  0  0  0  0  0  0
   -3.5465    0.0668    0.0000 C   0  0  0  0  0  0  0  0  0  0  0  0
   -4.0952   -1.3292    0.0000 N   0  0  0  0  0  0  0  0  0  0  0  0
   -5.5786   -1.5520    0.0000 C   0  0  0  0  0  0  0  0  0  0  0  0
   -6.5132   -0.3788    0.0000 C   0  0  0  0  0  0  0  0  0  0  0  0
   -5.9644    1.0173    0.0000 C   0  0  0  0  0  0  0  0  0  0  0  0
   -6.8990    2.1905    0.0000 C   0  0  0  0  0  0  0  0  0  0  0  0
   -8.3824    1.9677    0.0000 C   0  0  0  0  0  0  0  0  0  0  0  0
   -8.9312    0.5717    0.0000 C   0  0  0  0  0  0  0  0  0  0  0  0
   -7.9966   -0.6015    0.0000 C   0  0  0  0  0  0  0  0  0  0  0  0
  -10.4284    0.6622    0.0000 O   0  0  0  0  0  0  0  0  0  0  0  0
  -10.8050    2.1142    0.0000 C   0  0  0  0  0  0  0  0  0  0  0  0
   -9.5405    2.9210    0.0000 O   0  0  0  0  0  0  0  0  0  0  0  0
   -3.1606   -2.5025    0.0000 C   0  0  0  0  0  0  0  0  0  0  0  0
   -1.6772   -2.2797    0.0000 C   0  0  0  0  0  0  0  0  0  0  0  0
    2.7729   -1.6114    0.0000 C   0  0  0  0  0  0  0  0  0  0  0  0
    3.7075   -2.7847    0.0000 C   0  0  0  0  0  0  0  0  0  0  0  0
    5.1908   -2.5619    0.0000 C   0  0  0  0  0  0  0  0  0  0  0  0
    6.1254   -3.7352    0.0000 O   0  0  0  0  0  0  0  0  0  0  0  0
    5.7396   -1.1659    0.0000 C   0  0  0  0  0  0  0  0  0  0  0  0
    7.2230   -0.9431    0.0000 C   0  0  0  0  0  0  0  0  0  0  0  0
    7.7717    0.4529    0.0000 C   0  0  0  0  0  0  0  0  0  0  0  0
    6.8371    1.6261    0.0000 C   0  0  0  0  0  0  0  0  0  0  0  0
    7.3859    3.0221    0.0000 O   0  0  0  0  0  0  0  0  0  0  0  0
    8.8692    3.2449    0.0000 C   0  0  0  0  0  0  0  0  0  0  0  0
    9.4180    4.6409    0.0000 F   0  0  0  0  0  0  0  0  0  0  0  0
    9.8038    2.0717    0.0000 F   0  0  0  0  0  0  0  0  0  0  0  0
    5.3537    1.4034    0.0000 C   0  0  0  0  0  0  0  0  0  0  0  0
    4.8050    0.0074    0.0000 C   0  0  0  0  0  0  0  0  0  0  0  0
    3.3216   -0.2154    0.0000 O   0  0  0  0  0  0  0  0  0  0  0  0
  1  2  2  0
  2  3  1  0
  3  4  1  0
  4  5  1  0
  5  6  1  0
  6  7  1  0
  7  8  1  0
  8  9  1  0
  9 10  2  0
 10 11  1  0
 11 12  2  0
 12 13  1  0
 13 14  2  0
 13 15  1  0
 15 16  1  0
 16 17  1  0
  7 18  1  0
 18 19  1  0
  2 20  1  0
 20 21  2  0
 21 22  1  0
 22 23  2  0
 22 24  1  0
 24 25  2  0
 25 26  1  0
 26 27  2  0
 27 28  1  0
 28 29  1  0
 29 30  1  0
 29 31  1  0
 27 32  1  0
 32 33  2  0
 33 34  1  0
 19  4  1  0
 34 20  1  0
 14  9  1  0
 33 24  1  0
 17 12  1  0
M  END
> <Identifier>
JMC20066569-18

> <hERG>
1

$$$$

     RDKit          2D

 31 35  0  0  0  0  0  0  0  0999 V2000
    1.9280   -2.7308    0.0000 O   0  0  0  0  0  0  0  0  0  0  0  0
    2.3352   -1.2871    0.0000 C   0  0  0  0  0  0  0  0  0  0  0  0
    1.2886   -0.2126    0.0000 N   0  0  0  0  0  0  0  0  0  0  0  0
   -0.1653   -0.5818    0.0000 C   0  0  0  0  0  0  0  0  0  0  0  0
   -1.2119    0.4927    0.0000 C   0  0  0  0  0  0  0  0  0  0  0  0
   -2.6658    0.1235    0.0000 C   0  0  0  0  0  0  0  0  0  0  0  0
   -3.0730   -1.3202    0.0000 N   0  0  0  0  0  0  0  0  0  0  0  0
   -4.5269   -1.6894    0.0000 C   0  0  0  0  0  0  0  0  0  0  0  0
   -5.5735   -0.6149    0.0000 C   0  0  0  0  0  0  0  0  0  0  0  0
   -5.1663    0.8288    0.0000 C   0  0  0  0  0  0  0  0  0  0  0  0
   -6.2129    1.9033    0.0000 C   0  0  0  0  0  0  0  0  0  0  0  0
   -7.6668    1.5341    0.0000 C   0  0  0  0  0  0  0  0  0  0  0  0
   -8.0740    0.0905    0.0000 C   0  0  0  0  0  0  0  0  0  0  0  0
   -7.0274   -0.9840    0.0000 C   0  0  0  0  0  0  0  0  0  0  0  0
   -9.5729    0.0316    0.0000 O   0  0  0  0  0  0  0  0  0  0  0  0
  -10.0920    1.4389    0.0000 C   0  0  0  0  0  0  0  0  0  0  0  0
   -8.9140    2.3675    0.0000 O   0  0  0  0  0  0  0  0  0  0  0  0
   -2.0264   -2.3947    0.0000 C   0  0  0  0  0  0  0  0  0  0  0  0
   -0.5725   -2.0255    0.0000 C   0  0  0  0  0  0  0  0  0  0  0  0
    3.7891   -0.9180    0.0000 C   0  0  0  0  0  0  0  0  0  0  0  0
    4.8357   -1.9924    0.0000 C   0  0  0  0  0  0  0  0  0  0  0  0
    6.2896   -1.6233    0.0000 C   0  0  0  0  0  0  0  0  0  0  0  0
    7.3362   -2.6978    0.0000 O   0  0  0  0  0  0  0  0  0  0  0  0
    6.6968   -0.1796    0.0000 C   0  0  0  0  0  0  0  0  0  0  0  0
    8.1507    0.1896    0.0000 C   0  0  0  0  0  0  0  0  0  0  0  0
    8.5579    1.6332    0.0000 C   0  0  0  0  0  0  0  0  0  0  0  0
    7.5112    2.7077    0.0000 C   0  0  0  0  0  0  0  0  0  0  0  0
    7.9184    4.1514    0.0000 Cl  0  0  0  0  0  0  0  0  0  0  0  0
    6.0574    2.3386    0.0000 C   0  0  0  0  0  0  0  0  0  0  0  0
    5.6502    0.8949    0.0000 C   0  0  0  0  0  0  0  0  0  0  0  0
    4.1963    0.5257    0.0000 O   0  0  0  0  0  0  0  0  0  0  0  0
  1  2  2  0
  2  3  1  0
  3  4  1  0
  4  5  1  0
  5  6  1  0
  6  7  1  0
  7  8  1  0
  8  9  1  0
  9 10  2  0
 10 11  1  0
 11 12  2  0
 12 13  1  0
 13 14  2  0
 13 15  1  0
 15 16  1  0
 16 17  1  0
  7 18  1  0
 18 19  1  0
  2 20  1  0
 20 21  2  0
 21 22  1  0
 22 23  2  0
 22 24  1  0
 24 25  2  0
 25 26  1  0
 26 27  2  0
 27 28  1  0
 27 29  1  0
 29 30  2  0
 30 31  1  0
 19  4  1  0
 31 20  1  0
 14  9  1  0
 30 24  1  0
 17 12  1  0
M  END
> <Identifier>
JMC20066569-21

> <hERG>
1

$$$$

     RDKit          2D

 25 28  0  0  0  0  0  0  0  0999 V2000
   -7.8674    1.8915    0.0000 N   0  0  0  0  0  0  0  0  0  0  0  0
   -6.6385    1.0313    0.0000 C   0  0  0  0  0  0  0  0  0  0  0  0
   -5.2791    1.6655    0.0000 C   0  0  0  0  0  0  0  0  0  0  0  0
   -4.0503    0.8053    0.0000 C   0  0  0  0  0  0  0  0  0  0  0  0
   -4.1807   -0.6890    0.0000 C   0  0  0  0  0  0  0  0  0  0  0  0
   -2.9519   -1.5491    0.0000 C   0  0  0  0  0  0  0  0  0  0  0  0
   -3.0823   -3.0434    0.0000 O   0  0  0  0  0  0  0  0  0  0  0  0
   -1.5925   -0.9150    0.0000 N   0  0  0  0  0  0  0  0  0  0  0  0
   -0.3636   -1.7751    0.0000 C   0  0  0  0  0  0  0  0  0  0  0  0
    0.9957   -1.1409    0.0000 C   0  0  0  0  0  0  0  0  0  0  0  0
    1.1262    0.3534    0.0000 C   0  0  0  0  0  0  0  0  0  0  0  0
   -0.1027    1.2135    0.0000 C   0  0  0  0  0  0  0  0  0  0  0  0
   -1.4620    0.5794    0.0000 C   0  0  0  0  0  0  0  0  0  0  0  0
    1.2567    1.8477    0.0000 C   0  0  0  0  0  0  0  0  0  0  0  0
    2.4855    0.9875    0.0000 N   0  0  0  0  0  4  0  0  0  0  0  0
    3.8449    1.6217    0.0000 C   0  0  0  0  0  0  0  0  0  0  0  0
    5.0738    0.7616    0.0000 C   0  0  0  0  0  0  0  0  0  0  0  0
    4.9433   -0.7327    0.0000 C   0  0  0  0  0  0  0  0  0  0  0  0
    6.1722   -1.5929    0.0000 C   0  0  0  0  0  0  0  0  0  0  0  0
    7.5315   -0.9587    0.0000 C   0  0  0  0  0  0  0  0  0  0  0  0
    7.6620    0.5356    0.0000 C   0  0  0  0  0  0  0  0  0  0  0  0
    6.4331    1.3957    0.0000 C   0  0  0  0  0  0  0  0  0  0  0  0
    2.3551   -0.5068    0.0000 C   0  0  0  0  0  0  0  0  0  0  0  0
   -5.5401   -1.3231    0.0000 C   0  0  0  0  0  0  0  0  0  0  0  0
   -6.7690   -0.4630    0.0000 C   0  0  0  0  0  0  0  0  0  0  0  0
  1  2  1  0
  2  3  2  0
  3  4  1  0
  4  5  2  0
  5  6  1  0
  6  7  2  0
  6  8  1  0
  8  9  1  0
 10  9  1  6
 10 11  1  0
 11 12  1  0
 12 13  1  6
 12 14  1  0
 14 15  1  0
 15 16  1  0
 16 17  1  0
 17 18  2  0
 18 19  1  0
 19 20  2  0
 20 21  1  0
 21 22  2  0
 15 23  1  0
  5 24  1  0
 24 25  2  0
 25  2  1  0
 13  8  1  0
 22 17  1  0
 23 10  1  0
M  CHG  1  15   1
M  END
> <Identifier>
AMBASILIDE

> <hERG>
1

$$$$

     RDKit          2D

 24 25  0  0  0  0  0  0  0  0999 V2000
    2.0030    4.4611    0.0000 C   0  0  0  0  0  0  0  0  0  0  0  0
    2.1356    2.9670    0.0000 C   0  0  0  0  0  0  0  0  0  0  0  0
    0.9079    2.1051    0.0000 C   0  0  0  0  0  0  0  0  0  0  0  0
   -0.1233    2.7478    0.0000 O   0  0  0  0  0  0  0  0  0  0  0  0
    1.0404    0.6110    0.0000 O   0  0  0  0  0  0  0  0  0  0  0  0
   -0.1873   -0.2508    0.0000 C   0  0  0  0  0  0  0  0  0  0  0  0
    0.6746   -1.4785    0.0000 C   0  0  0  0  0  0  0  0  0  0  0  0
    2.1687   -1.3460    0.0000 C   0  0  0  0  0  0  0  0  0  0  0  0
    3.0305   -2.5737    0.0000 C   0  0  0  0  0  0  0  0  0  0  0  0
    4.5247   -2.4412    0.0000 C   0  0  0  0  0  0  0  0  0  0  0  0
    5.1570   -1.0810    0.0000 C   0  0  0  0  0  0  0  0  0  0  0  0
    4.2951    0.1467    0.0000 C   0  0  0  0  0  0  0  0  0  0  0  0
    2.8010    0.0142    0.0000 C   0  0  0  0  0  0  0  0  0  0  0  0
   -1.4150   -1.1127    0.0000 C   0  0  0  0  0  0  0  0  0  0  0  0
   -2.7752   -0.4804    0.0000 C   0  0  0  0  0  0  0  0  0  0  0  0
   -4.0029   -1.3422    0.0000 C   0  0  0  0  0  0  0  0  0  0  0  0
   -3.8704   -2.8364    0.0000 C   0  0  0  0  0  0  0  0  0  0  0  0
   -2.5101   -3.4687    0.0000 C   0  0  0  0  0  0  0  0  0  0  0  0
   -1.2824   -2.6068    0.0000 C   0  0  0  0  0  0  0  0  0  0  0  0
   -1.0491    0.9768    0.0000 C   0  0  0  0  0  0  0  0  0  0  0  0
   -0.6751    2.1328    0.0000 C   0  0  0  0  0  0  0  0  0  0  0  0
   -2.5433    0.8443    0.0000 C   0  0  0  0  0  0  0  0  0  0  0  0
   -3.4051    2.0720    0.0000 N   0  0  0  0  0  4  0  0  0  0  0  0
   -4.8992    1.9395    0.0000 C   0  0  0  0  0  0  0  0  0  0  0  0
  1  2  1  0
  2  3  1  0
  3  4  2  0
  3  5  1  0
  5  6  1  0
  6  7  1  1
  7  8  1  0
  8  9  2  0
  9 10  1  0
 10 11  2  0
 11 12  1  0
 12 13  2  0
  6 14  1  0
 14 15  2  0
 15 16  1  0
 16 17  2  0
 17 18  1  0
 18 19  2  0
  6 20  1  0
 20 21  1  1
 20 22  1  0
 22 23  1  0
 23 24  1  0
 13  8  1  0
 19 14  1  0
M  CHG  1  23   1
M  END
> <Identifier>
NORPROPOXYPHENE

> <hERG>
1

$$$$

     RDKit          2D

 23 26  0  0  0  0  0  0  0  0999 V2000
    4.8092    3.0237    0.0000 C   0  0  0  0  0  0  0  0  0  0  0  0
    3.9039    1.8277    0.0000 N   0  0  0  0  0  0  0  0  0  0  0  0
    2.4042    1.8571    0.0000 N   0  0  0  0  0  0  0  0  0  0  0  0
    1.9128    0.4399    0.0000 C   0  0  0  0  0  0  0  0  0  0  0  0
    0.4774    0.0045    0.0000 C   0  0  0  0  0  0  0  0  0  0  0  0
    0.1368   -1.4564    0.0000 O   0  0  0  0  0  0  0  0  0  0  0  0
   -0.6175    1.0298    0.0000 N   0  0  0  0  0  0  0  0  0  0  0  0
   -2.0529    0.5944    0.0000 C   0  0  0  0  0  0  0  0  0  0  0  0
   -3.1477    1.6197    0.0000 C   0  0  0  0  0  0  0  0  0  0  0  0
   -4.5831    1.1842    0.0000 C   0  0  0  0  0  0  0  0  0  0  0  0
   -6.0185    0.7488    0.0000 C   0  0  0  0  0  0  0  0  0  0  0  0
   -6.3590   -0.7120    0.0000 C   0  0  0  0  0  0  0  0  0  0  0  0
   -5.2642   -1.7374    0.0000 C   0  0  0  0  0  0  0  0  0  0  0  0
   -3.8288   -1.3019    0.0000 C   0  0  0  0  0  0  0  0  0  0  0  0
   -2.3934   -0.8665    0.0000 C   0  0  0  0  0  0  0  0  0  0  0  0
   -3.4883    0.1589    0.0000 N   0  0  0  0  0  4  0  0  0  0  0  0
   -2.6921    0.1988    0.0000 C   0  0  0  0  0  0  0  0  0  0  0  0
    3.1088   -0.4654    0.0000 C   0  0  0  0  0  0  0  0  0  0  0  0
    3.2363   -1.9599    0.0000 C   0  0  0  0  0  0  0  0  0  0  0  0
    4.5944   -2.5968    0.0000 C   0  0  0  0  0  0  0  0  0  0  0  0
    5.8250   -1.7391    0.0000 C   0  0  0  0  0  0  0  0  0  0  0  0
    5.6974   -0.2445    0.0000 C   0  0  0  0  0  0  0  0  0  0  0  0
    4.3394    0.3923    0.0000 C   0  0  0  0  0  0  0  0  0  0  0  0
  1  2  1  0
  2  3  1  0
  3  4  2  0
  4  5  1  0
  5  6  2  0
  5  7  1  0
  7  8  1  0
  8  9  1  0
 10  9  1  1
 10 11  1  0
 11 12  1  0
 12 13  1  0
 14 13  1  1
 14 15  1  0
 14 16  1  0
 16 17  1  0
  4 18  1  0
 18 19  2  0
 19 20  1  0
 20 21  2  0
 21 22  1  0
 22 23  2  0
 23  2  1  0
 15  8  1  0
 23 18  1  0
 16 10  1  0
M  CHG  1  16   1
M  END
> <Identifier>
GRANISETRON

> <hERG>
1

$$$$

     RDKit          2D

 22 22  0  0  0  0  0  0  0  0999 V2000
    7.2903    3.0873    0.0000 C   0  0  0  0  0  0  0  0  0  0  0  0
    5.7961    3.2200    0.0000 O   0  0  0  0  0  0  0  0  0  0  0  0
    4.9342    1.9923    0.0000 C   0  0  0  0  0  0  0  0  0  0  0  0
    3.4401    2.1250    0.0000 C   0  0  0  0  0  0  0  0  0  0  0  0
    2.5781    0.8974    0.0000 C   0  0  0  0  0  0  0  0  0  0  0  0
    1.0840    1.0301    0.0000 C   0  0  0  0  0  0  0  0  0  0  0  0
    0.2220   -0.1976    0.0000 C   0  0  0  0  0  0  0  0  0  0  0  0
    0.8542   -1.5578    0.0000 N   0  0  0  0  0  0  0  0  0  0  0  0
    2.3483   -1.6905    0.0000 O   0  0  0  0  0  0  0  0  0  0  0  0
    2.9805   -3.0508    0.0000 C   0  0  0  0  0  0  0  0  0  0  0  0
    4.4746   -3.1835    0.0000 C   0  0  0  0  0  0  0  0  0  0  0  0
    5.1068   -4.5437    0.0000 N   0  0  0  0  0  4  0  0  0  0  0  0
   -1.2721   -0.0649    0.0000 C   0  0  0  0  0  0  0  0  0  0  0  0
   -2.1340   -1.2925    0.0000 C   0  0  0  0  0  0  0  0  0  0  0  0
   -3.6282   -1.1598    0.0000 C   0  0  0  0  0  0  0  0  0  0  0  0
   -4.2603    0.2004    0.0000 C   0  0  0  0  0  0  0  0  0  0  0  0
   -5.7545    0.3331    0.0000 C   0  0  0  0  0  0  0  0  0  0  0  0
   -7.2486    0.4658    0.0000 F   0  0  0  0  0  0  0  0  0  0  0  0
   -5.6218    1.8272    0.0000 F   0  0  0  0  0  0  0  0  0  0  0  0
   -5.8871   -1.1610    0.0000 F   0  0  0  0  0  0  0  0  0  0  0  0
   -3.3984    1.4281    0.0000 C   0  0  0  0  0  0  0  0  0  0  0  0
   -1.9043    1.2954    0.0000 C   0  0  0  0  0  0  0  0  0  0  0  0
  1  2  1  0
  2  3  1  0
  3  4  1  0
  4  5  1  0
  5  6  1  0
  6  7  1  0
  7  8  2  0
  8  9  1  0
  9 10  1  0
 10 11  1  0
 11 12  1  0
  7 13  1  0
 13 14  2  0
 14 15  1  0
 15 16  2  0
 16 17  1  0
 17 18  1  0
 17 19  1  0
 17 20  1  0
 16 21  1  0
 21 22  2  0
 22 13  1  0
M  CHG  1  12   1
M  END
> <Identifier>
FLUVOXAMINE

> <hERG>
1

$$$$

     RDKit          2D

 28 29  0  0  0  0  0  0  0  0999 V2000
   -1.6753   -2.2315    0.0000 O   0  0  0  0  0  0  0  0  0  0  0  0
   -0.6054   -1.1802    0.0000 C   0  0  0  0  0  0  0  0  0  0  0  0
    0.8401   -1.5811    0.0000 N   0  0  0  0  0  0  0  0  0  0  0  0
    1.2155   -3.0334    0.0000 C   0  0  0  0  0  0  0  0  0  0  0  0
    2.6610   -3.4343    0.0000 C   0  0  0  0  0  0  0  0  0  0  0  0
    3.0364   -4.8866    0.0000 C   0  0  0  0  0  0  0  0  0  0  0  0
    4.4818   -5.2875    0.0000 C   0  0  0  0  0  0  0  0  0  0  0  0
    5.5518   -4.2363    0.0000 C   0  0  0  0  0  0  0  0  0  0  0  0
    5.1763   -2.7840    0.0000 C   0  0  0  0  0  0  0  0  0  0  0  0
    3.7309   -2.3830    0.0000 N   0  0  0  0  0  4  0  0  0  0  0  0
   -0.9808    0.2721    0.0000 C   0  0  0  0  0  0  0  0  0  0  0  0
    0.0891    1.3234    0.0000 C   0  0  0  0  0  0  0  0  0  0  0  0
   -0.2863    2.7756    0.0000 C   0  0  0  0  0  0  0  0  0  0  0  0
    0.7836    3.8269    0.0000 O   0  0  0  0  0  0  0  0  0  0  0  0
    2.2290    3.4259    0.0000 C   0  0  0  0  0  0  0  0  0  0  0  0
    3.2990    4.4772    0.0000 C   0  0  0  0  0  0  0  0  0  0  0  0
    4.3689    5.5285    0.0000 F   0  0  0  0  0  0  0  0  0  0  0  0
    4.3503    3.4073    0.0000 F   0  0  0  0  0  0  0  0  0  0  0  0
    2.2477    5.5472    0.0000 F   0  0  0  0  0  0  0  0  0  0  0  0
   -1.7318    3.1766    0.0000 C   0  0  0  0  0  0  0  0  0  0  0  0
   -2.8017    2.1253    0.0000 C   0  0  0  0  0  0  0  0  0  0  0  0
   -2.4262    0.6730    0.0000 C   0  0  0  0  0  0  0  0  0  0  0  0
   -3.4962   -0.3782    0.0000 O   0  0  0  0  0  0  0  0  0  0  0  0
   -4.9416    0.0227    0.0000 C   0  0  0  0  0  0  0  0  0  0  0  0
   -6.0116   -1.0286    0.0000 C   0  0  0  0  0  0  0  0  0  0  0  0
   -7.0815   -2.0799    0.0000 F   0  0  0  0  0  0  0  0  0  0  0  0
   -7.0628    0.0414    0.0000 F   0  0  0  0  0  0  0  0  0  0  0  0
   -4.9603   -2.0985    0.0000 F   0  0  0  0  0  0  0  0  0  0  0  0
  1  2  2  0
  2  3  1  0
  3  4  1  0
  5  4  1  6
  5  6  1  0
  6  7  1  0
  7  8  1  0
  8  9  1  0
  9 10  1  0
  2 11  1  0
 11 12  2  0
 12 13  1  0
 13 14  1  0
 14 15  1  0
 15 16  1  0
 16 17  1  0
 16 18  1  0
 16 19  1  0
 13 20  2  0
 20 21  1  0
 21 22  2  0
 22 23  1  0
 23 24  1  0
 24 25  1  0
 25 26  1  0
 25 27  1  0
 25 28  1  0
 10  5  1  0
 22 11  1  0
M  CHG  1  10   1
M  END
> <Identifier>
FLECAINIDE

> <hERG>
1

$$$$

     RDKit          2D

 28 31  0  0  0  0  0  0  0  0999 V2000
   -3.3017   -1.9895    0.0000 O   0  0  0  0  0  0  0  0  0  0  0  0
   -4.2932   -0.8639    0.0000 C   0  0  0  0  0  0  0  0  0  0  0  0
   -5.7637   -1.1599    0.0000 C   0  0  0  0  0  0  0  0  0  0  0  0
   -6.7553   -0.0343    0.0000 C   0  0  0  0  0  0  0  0  0  0  0  0
   -7.3802   -1.3979    0.0000 C   0  0  0  0  0  0  0  0  0  0  0  0
   -8.8702   -1.2249    0.0000 C   0  0  0  0  0  0  0  0  0  0  0  0
   -9.1661    0.2456    0.0000 C   0  0  0  0  0  0  0  0  0  0  0  0
   -7.8590    0.9814    0.0000 C   0  0  0  0  0  0  0  0  0  0  0  0
   -6.2763    1.3872    0.0000 C   0  0  0  0  0  0  0  0  0  0  0  0
   -4.8058    1.6831    0.0000 C   0  0  0  0  0  0  0  0  0  0  0  0
   -4.3268    3.1045    0.0000 O   0  0  0  0  0  0  0  0  0  0  0  0
   -3.8142    0.5575    0.0000 N   0  0  0  0  0  0  0  0  0  0  0  0
   -2.3437    0.8534    0.0000 C   0  0  0  0  0  0  0  0  0  0  0  0
   -1.3522   -0.2721    0.0000 C   0  0  0  0  0  0  0  0  0  0  0  0
    0.1183    0.0238    0.0000 C   0  0  0  0  0  0  0  0  0  0  0  0
    1.1099   -1.1017    0.0000 C   0  0  0  0  0  0  0  0  0  0  0  0
    2.5804   -0.8058    0.0000 N   0  0  0  0  0  0  0  0  0  0  0  0
    3.5719   -1.9314    0.0000 C   0  0  0  0  0  0  0  0  0  0  0  0
    5.0424   -1.6354    0.0000 C   0  0  0  0  0  0  0  0  0  0  0  0
    5.5214   -0.2140    0.0000 N   0  0  0  0  0  0  0  0  0  0  0  0
    6.9920    0.0819    0.0000 C   0  0  0  0  0  0  0  0  0  0  0  0
    7.9835   -1.0436    0.0000 N   0  0  0  0  0  0  0  0  0  0  0  0
    9.4540   -0.7477    0.0000 C   0  0  0  0  0  0  0  0  0  0  0  0
    9.9330    0.6738    0.0000 C   0  0  0  0  0  0  0  0  0  0  0  0
    8.9415    1.7993    0.0000 C   0  0  0  0  0  0  0  0  0  0  0  0
    7.4709    1.5034    0.0000 N   0  0  0  0  0  0  0  0  0  0  0  0
    4.5299    0.9116    0.0000 C   0  0  0  0  0  0  0  0  0  0  0  0
    3.0594    0.6157    0.0000 C   0  0  0  0  0  0  0  0  0  0  0  0
  1  2  2  0
  2  3  1  0
  3  4  1  0
  4  5  1  0
  5  6  1  0
  6  7  1  0
  7  8  1  0
  4  9  1  0
  9 10  1  0
 10 11  2  0
 10 12  1  0
 12 13  1  0
 13 14  1  0
 14 15  1  0
 15 16  1  0
 16 17  1  0
 17 18  1  0
 18 19  1  0
 19 20  1  0
 20 21  1  0
 21 22  2  0
 22 23  1  0
 23 24  2  0
 24 25  1  0
 25 26  2  0
 20 27  1  0
 27 28  1  0
 12  2  1  0
 28 17  1  0
  8  4  1  0
 26 21  1  0
M  END
> <Identifier>
BUSPIRONE

> <hERG>
1

$$$$

     RDKit          2D

 24 26  0  0  0  0  0  0  0  0999 V2000
   -3.8821    4.2090    0.0000 C   0  0  0  0  0  0  0  0  0  0  0  0
   -3.4347    2.7773    0.0000 N   0  0  0  0  0  4  0  0  0  0  0  0
   -4.4509    1.6739    0.0000 C   0  0  0  0  0  0  0  0  0  0  0  0
   -1.9711    2.4489    0.0000 C   0  0  0  0  0  0  0  0  0  0  0  0
   -1.5236    1.0172    0.0000 C   0  0  0  0  0  0  0  0  0  0  0  0
   -0.0600    0.6889    0.0000 C   0  0  0  0  0  0  0  0  0  0  0  0
    0.3874   -0.7428    0.0000 C   0  0  0  0  0  0  0  0  0  0  0  0
   -1.0832   -1.0382    0.0000 C   0  0  0  0  0  0  0  0  0  0  0  0
   -2.0743    0.0878    0.0000 C   0  0  0  0  0  0  0  0  0  0  0  0
   -3.5449   -0.2076    0.0000 C   0  0  0  0  0  0  0  0  0  0  0  0
   -4.0245   -1.6289    0.0000 C   0  0  0  0  0  0  0  0  0  0  0  0
   -5.4951   -1.9242    0.0000 F   0  0  0  0  0  0  0  0  0  0  0  0
   -3.0334   -2.7548    0.0000 C   0  0  0  0  0  0  0  0  0  0  0  0
   -1.5627   -2.4595    0.0000 C   0  0  0  0  0  0  0  0  0  0  0  0
    0.5274   -2.2363    0.0000 O   0  0  0  0  0  0  0  0  0  0  0  0
    1.9911   -2.5647    0.0000 C   0  0  0  0  0  0  0  0  0  0  0  0
    2.7556   -1.2741    0.0000 C   0  0  0  0  0  0  0  0  0  0  0  0
    4.2263   -0.9788    0.0000 C   0  0  0  0  0  0  0  0  0  0  0  0
    4.7058    0.4425    0.0000 C   0  0  0  0  0  0  0  0  0  0  0  0
    6.1764    0.7378    0.0000 C   0  0  0  0  0  0  0  0  0  0  0  0
    7.6471    1.0332    0.0000 N   0  0  0  0  0  0  0  0  0  0  0  0
    3.7147    1.5684    0.0000 C   0  0  0  0  0  0  0  0  0  0  0  0
    2.2441    1.2731    0.0000 C   0  0  0  0  0  0  0  0  0  0  0  0
    1.7645   -0.1482    0.0000 C   0  0  0  0  0  0  0  0  0  0  0  0
  1  2  1  0
  2  3  1  0
  2  4  1  0
  4  5  1  0
  5  6  1  0
  7  6  1  1
  7  8  1  0
  8  9  2  0
  9 10  1  0
 10 11  2  0
 11 12  1  0
 11 13  1  0
 13 14  2  0
  7 15  1  0
 15 16  1  0
 16 17  1  0
 17 18  2  0
 18 19  1  0
 19 20  1  0
 20 21  3  0
 19 22  2  0
 22 23  1  0
 23 24  2  0
 24  7  1  0
 14  8  1  0
 24 17  1  0
M  CHG  1   2   1
M  END
> <Identifier>
CITALOPRAM

> <hERG>
1

$$$$

     RDKit          2D

 22 24  0  0  0  0  0  0  0  0999 V2000
   -5.2997   -3.1106    0.0000 C   0  0  0  0  0  0  0  0  0  0  0  0
   -4.2928   -1.9988    0.0000 N   0  0  0  0  0  0  0  0  0  0  0  0
   -4.7522   -0.5708    0.0000 C   0  0  0  0  0  0  0  0  0  0  0  0
   -2.8265   -2.3149    0.0000 C   0  0  0  0  0  0  0  0  0  0  0  0
   -1.8196   -1.2031    0.0000 C   0  0  0  0  0  0  0  0  0  0  0  0
   -0.3533   -1.5192    0.0000 C   0  0  0  0  0  0  0  0  0  0  0  0
    0.6537   -0.4074    0.0000 N   0  0  0  0  0  0  0  0  0  0  0  0
    2.0922   -0.8322    0.0000 C   0  0  0  0  0  0  0  0  0  0  0  0
    2.2224   -2.3266    0.0000 C   0  0  0  0  0  0  0  0  0  0  0  0
    3.5816   -2.9610    0.0000 C   0  0  0  0  0  0  0  0  0  0  0  0
    4.8106   -2.1012    0.0000 C   0  0  0  0  0  0  0  0  0  0  0  0
    4.6805   -0.6068    0.0000 C   0  0  0  0  0  0  0  0  0  0  0  0
    3.3213    0.0277    0.0000 C   0  0  0  0  0  0  0  0  0  0  0  0
    3.4154    1.5247    0.0000 C   0  0  0  0  0  0  0  0  0  0  0  0
    2.3036    2.5316    0.0000 C   0  0  0  0  0  0  0  0  0  0  0  0
    0.8231    2.2902    0.0000 C   0  0  0  0  0  0  0  0  0  0  0  0
    0.0575    3.5801    0.0000 C   0  0  0  0  0  0  0  0  0  0  0  0
   -1.4424    3.5620    0.0000 C   0  0  0  0  0  0  0  0  0  0  0  0
   -2.1767    2.2540    0.0000 C   0  0  0  0  0  0  0  0  0  0  0  0
   -3.6765    2.2359    0.0000 Cl  0  0  0  0  0  0  0  0  0  0  0  0
   -1.4110    0.9641    0.0000 C   0  0  0  0  0  0  0  0  0  0  0  0
    0.0888    0.9822    0.0000 C   0  0  0  0  0  0  0  0  0  0  0  0
  1  2  1  0
  2  3  1  0
  2  4  1  0
  4  5  1  0
  5  6  1  0
  6  7  1  0
  7  8  1  0
  8  9  2  0
  9 10  1  0
 10 11  2  0
 11 12  1  0
 12 13  2  0
 13 14  1  0
 14 15  1  0
 15 16  1  0
 16 17  2  0
 17 18  1  0
 18 19  2  0
 19 20  1  0
 19 21  1  0
 21 22  2  0
 22  7  1  0
 13  8  1  0
 22 16  1  0
M  END
> <Identifier>
CLOMIPRAMINE

> <hERG>
1

$$$$

     RDKit          2D

 32 36  0  0  0  0  0  0  0  0999 V2000
   -0.3442   -2.9475    0.0000 O   0  0  0  0  0  0  0  0  0  0  0  0
   -1.1913   -1.7096    0.0000 C   0  0  0  0  0  0  0  0  0  0  0  0
   -2.6869   -1.8242    0.0000 C   0  0  0  0  0  0  0  0  0  0  0  0
   -3.5340   -0.5863    0.0000 N   0  0  0  0  0  0  0  0  0  0  0  0
   -5.0296   -0.7010    0.0000 C   0  0  0  0  0  0  0  0  0  0  0  0
   -5.8767    0.5370    0.0000 C   0  0  0  0  0  0  0  0  0  0  0  0
   -7.3723    0.4223    0.0000 C   0  0  0  0  0  0  0  0  0  0  0  0
   -8.2194    1.6602    0.0000 C   0  0  0  0  0  0  0  0  0  0  0  0
   -9.7150    1.5456    0.0000 C   0  0  0  0  0  0  0  0  0  0  0  0
  -10.3635    0.1930    0.0000 C   0  0  0  0  0  0  0  0  0  0  0  0
  -11.8591    0.0784    0.0000 F   0  0  0  0  0  0  0  0  0  0  0  0
   -9.5164   -1.0449    0.0000 C   0  0  0  0  0  0  0  0  0  0  0  0
   -8.0208   -0.9302    0.0000 C   0  0  0  0  0  0  0  0  0  0  0  0
   -2.8854    0.7663    0.0000 C   0  0  0  0  0  0  0  0  0  0  0  0
   -1.3898    0.8809    0.0000 C   0  0  0  0  0  0  0  0  0  0  0  0
   -0.5427   -0.3570    0.0000 N   0  0  0  0  0  0  0  0  0  0  0  0
    0.9529   -0.2424    0.0000 C   0  0  0  0  0  0  0  0  0  0  0  0
    1.8000   -1.4803    0.0000 C   0  0  0  0  0  0  0  0  0  0  0  0
    3.2956   -1.3656    0.0000 C   0  0  0  0  0  0  0  0  0  0  0  0
    3.9441   -0.0131    0.0000 C   0  0  0  0  0  0  0  0  0  0  0  0
    5.4397    0.1016    0.0000 C   0  0  0  0  0  0  0  0  0  0  0  0
    6.0882    1.4542    0.0000 C   0  0  0  0  0  0  0  0  0  0  0  0
    7.5838    1.5688    0.0000 C   0  0  0  0  0  0  0  0  0  0  0  0
    8.4309    0.3309    0.0000 N   0  0  0  0  0  0  0  0  0  0  0  0
    9.9303    0.2886    0.0000 C   0  0  0  0  0  0  0  0  0  0  0  0
   10.3534   -1.1505    0.0000 C   0  0  0  0  0  0  0  0  0  0  0  0
    9.1155   -1.9976    0.0000 N   0  0  0  0  0  0  0  0  0  0  0  0
    7.9274   -1.0821    0.0000 C   0  0  0  0  0  0  0  0  0  0  0  0
    5.2411    2.6921    0.0000 C   0  0  0  0  0  0  0  0  0  0  0  0
    3.7455    2.5774    0.0000 C   0  0  0  0  0  0  0  0  0  0  0  0
    3.0970    1.2249    0.0000 C   0  0  0  0  0  0  0  0  0  0  0  0
    1.6014    1.1102    0.0000 C   0  0  0  0  0  0  0  0  0  0  0  0
  1  2  2  0
  2  3  1  0
  3  4  1  0
  4  5  1  0
  5  6  1  0
  6  7  1  0
  7  8  2  0
  8  9  1  0
  9 10  2  0
 10 11  1  0
 10 12  1  0
 12 13  2  0
  4 14  1  0
 14 15  1  0
 15 16  1  0
 17 16  1  6
 17 18  1  0
 18 19  1  0
 19 20  1  0
 20 21  2  0
 21 22  1  0
 22 23  1  0
 23 24  1  0
 24 25  1  0
 25 26  2  0
 26 27  1  0
 27 28  2  0
 22 29  2  0
 29 30  1  0
 30 31  2  0
 31 32  1  0
 16  2  1  0
 32 17  1  0
 13  7  1  0
 31 20  1  0
 28 24  1  0
M  END
> <Identifier>
AMINOMETHYL TETRAHYDRONAPHTHALENE KETOPIPERAZINE 4B

> <hERG>
1

$$$$

     RDKit          2D

 31 35  0  0  0  0  0  0  0  0999 V2000
    1.8916   -2.6395    0.0000 O   0  0  0  0  0  0  0  0  0  0  0  0
    2.2818   -1.1911    0.0000 C   0  0  0  0  0  0  0  0  0  0  0  0
    1.2227   -0.1290    0.0000 N   0  0  0  0  0  0  0  0  0  0  0  0
   -0.2268   -0.5152    0.0000 C   0  0  0  0  0  0  0  0  0  0  0  0
   -1.2860    0.5469    0.0000 C   0  0  0  0  0  0  0  0  0  0  0  0
   -2.7354    0.1607    0.0000 C   0  0  0  0  0  0  0  0  0  0  0  0
   -3.1256   -1.2876    0.0000 N   0  0  0  0  0  0  0  0  0  0  0  0
   -4.5750   -1.6739    0.0000 C   0  0  0  0  0  0  0  0  0  0  0  0
   -5.6342   -0.6117    0.0000 C   0  0  0  0  0  0  0  0  0  0  0  0
   -5.2440    0.8366    0.0000 C   0  0  0  0  0  0  0  0  0  0  0  0
   -6.3032    1.8987    0.0000 C   0  0  0  0  0  0  0  0  0  0  0  0
   -7.7526    1.5125    0.0000 C   0  0  0  0  0  0  0  0  0  0  0  0
   -8.1428    0.0642    0.0000 C   0  0  0  0  0  0  0  0  0  0  0  0
   -7.0837   -0.9980    0.0000 C   0  0  0  0  0  0  0  0  0  0  0  0
   -9.6409   -0.0123    0.0000 O   0  0  0  0  0  0  0  0  0  0  0  0
  -10.1765    1.3889    0.0000 C   0  0  0  0  0  0  0  0  0  0  0  0
   -9.0095    2.3312    0.0000 O   0  0  0  0  0  0  0  0  0  0  0  0
   -2.0664   -2.3498    0.0000 C   0  0  0  0  0  0  0  0  0  0  0  0
   -0.6170   -1.9635    0.0000 C   0  0  0  0  0  0  0  0  0  0  0  0
    3.7313   -0.8049    0.0000 C   0  0  0  0  0  0  0  0  0  0  0  0
    4.7905   -1.8670    0.0000 C   0  0  0  0  0  0  0  0  0  0  0  0
    6.2399   -1.4808    0.0000 C   0  0  0  0  0  0  0  0  0  0  0  0
    7.2991   -2.5429    0.0000 O   0  0  0  0  0  0  0  0  0  0  0  0
    6.6301   -0.0324    0.0000 C   0  0  0  0  0  0  0  0  0  0  0  0
    8.0795    0.3538    0.0000 C   0  0  0  0  0  0  0  0  0  0  0  0
    8.4698    1.8021    0.0000 C   0  0  0  0  0  0  0  0  0  0  0  0
    9.9192    2.1884    0.0000 F   0  0  0  0  0  0  0  0  0  0  0  0
    7.4106    2.8643    0.0000 C   0  0  0  0  0  0  0  0  0  0  0  0
    5.9612    2.4780    0.0000 C   0  0  0  0  0  0  0  0  0  0  0  0
    5.5709    1.0297    0.0000 C   0  0  0  0  0  0  0  0  0  0  0  0
    4.1215    0.6435    0.0000 O   0  0  0  0  0  0  0  0  0  0  0  0
  1  2  2  0
  2  3  1  0
  3  4  1  0
  4  5  1  0
  5  6  1  0
  6  7  1  0
  7  8  1  0
  8  9  1  0
  9 10  2  0
 10 11  1  0
 11 12  2  0
 12 13  1  0
 13 14  2  0
 13 15  1  0
 15 16  1  0
 16 17  1  0
  7 18  1  0
 18 19  1  0
  2 20  1  0
 20 21  2  0
 21 22  1  0
 22 23  2  0
 22 24  1  0
 24 25  2  0
 25 26  1  0
 26 27  1  0
 26 28  2  0
 28 29  1  0
 29 30  2  0
 30 31  1  0
 19  4  1  0
 31 20  1  0
 14  9  1  0
 30 24  1  0
 17 12  1  0
M  END
> <Identifier>
JMC20066569-30

> <hERG>
1

$$$$

     RDKit          2D

 22 25  0  0  0  0  0  0  0  0999 V2000
   -5.4020   -2.5849    0.0000 Cl  0  0  0  0  0  0  0  0  0  0  0  0
   -4.4151   -1.4553    0.0000 C   0  0  0  0  0  0  0  0  0  0  0  0
   -4.8999   -0.0358    0.0000 C   0  0  0  0  0  0  0  0  0  0  0  0
   -3.9130    1.0938    0.0000 C   0  0  0  0  0  0  0  0  0  0  0  0
   -2.4413    0.8039    0.0000 C   0  0  0  0  0  0  0  0  0  0  0  0
   -1.9564   -0.6156    0.0000 C   0  0  0  0  0  0  0  0  0  0  0  0
   -2.9433   -1.7452    0.0000 C   0  0  0  0  0  0  0  0  0  0  0  0
   -0.5444   -1.1215    0.0000 N   0  0  0  0  0  0  0  0  0  0  0  0
    0.7316   -0.3330    0.0000 C   0  0  0  0  0  0  0  0  0  0  0  0
    1.9957   -1.1405    0.0000 N   0  0  0  0  0  0  0  0  0  0  0  0
    1.9285   -2.6390    0.0000 C   0  0  0  0  0  0  0  0  0  0  0  0
    3.1926   -3.4465    0.0000 C   0  0  0  0  0  0  0  0  0  0  0  0
    4.5239   -2.7555    0.0000 N   0  0  0  0  0  0  0  0  0  0  0  0
    4.5912   -1.2570    0.0000 C   0  0  0  0  0  0  0  0  0  0  0  0
    3.3271   -0.4495    0.0000 C   0  0  0  0  0  0  0  0  0  0  0  0
    0.9107    1.1563    0.0000 C   0  0  0  0  0  0  0  0  0  0  0  0
    2.3625    1.5337    0.0000 C   0  0  0  0  0  0  0  0  0  0  0  0
    2.7615    2.9796    0.0000 C   0  0  0  0  0  0  0  0  0  0  0  0
    1.7088    4.0482    0.0000 C   0  0  0  0  0  0  0  0  0  0  0  0
    0.2570    3.6708    0.0000 C   0  0  0  0  0  0  0  0  0  0  0  0
   -0.1420    2.2248    0.0000 C   0  0  0  0  0  0  0  0  0  0  0  0
   -1.6338    2.0680    0.0000 N   0  0  0  0  0  0  0  0  0  0  0  0
  1  2  1  0
  2  3  2  0
  3  4  1  0
  4  5  2  0
  5  6  1  0
  6  7  2  0
  6  8  1  0
  8  9  2  0
  9 10  1  0
 10 11  1  0
 11 12  1  0
 12 13  1  0
 13 14  1  0
 14 15  1  0
  9 16  1  0
 16 17  2  0
 17 18  1  0
 18 19  2  0
 19 20  1  0
 20 21  2  0
 21 22  1  0
  7  2  1  0
 15 10  1  0
 21 16  1  0
 22  5  1  0
M  END
> <Identifier>
N-DESMETHYLCLOZAPINE

> <hERG>
1

$$$$

     RDKit          2D

 23 26  0  0  0  0  0  0  0  0999 V2000
   -5.9806   -1.5624    0.0000 F   0  0  0  0  0  0  0  0  0  0  0  0
   -4.5650   -1.0665    0.0000 C   0  0  0  0  0  0  0  0  0  0  0  0
   -4.2865    0.4074    0.0000 C   0  0  0  0  0  0  0  0  0  0  0  0
   -2.8709    0.9032    0.0000 C   0  0  0  0  0  0  0  0  0  0  0  0
   -1.7336   -0.0749    0.0000 C   0  0  0  0  0  0  0  0  0  0  0  0
   -0.2458    0.1158    0.0000 C   0  0  0  0  0  0  0  0  0  0  0  0
    0.4745    1.4316    0.0000 C   0  0  0  0  0  0  0  0  0  0  0  0
    1.9741    1.4657    0.0000 C   0  0  0  0  0  0  0  0  0  0  0  0
    2.6944    2.7814    0.0000 N   0  0  0  0  0  4  0  0  0  0  0  0
    1.9150    4.0631    0.0000 C   0  0  0  0  0  0  0  0  0  0  0  0
    0.4154    4.0290    0.0000 C   0  0  0  0  0  0  0  0  0  0  0  0
   -0.3049    2.7132    0.0000 C   0  0  0  0  0  0  0  0  0  0  0  0
   -1.8045    2.6791    0.0000 F   0  0  0  0  0  0  0  0  0  0  0  0
    0.3953   -1.2403    0.0000 C   0  0  0  0  0  0  0  0  0  0  0  0
    1.8693   -1.5187    0.0000 C   0  0  0  0  0  0  0  0  0  0  0  0
    2.3651   -2.9344    0.0000 C   0  0  0  0  0  0  0  0  0  0  0  0
    3.8390   -3.2128    0.0000 C   0  0  0  0  0  0  0  0  0  0  0  0
    4.8171   -2.0756    0.0000 C   0  0  0  0  0  0  0  0  0  0  0  0
    4.3213   -0.6599    0.0000 C   0  0  0  0  0  0  0  0  0  0  0  0
    2.8473   -0.3815    0.0000 C   0  0  0  0  0  0  0  0  0  0  0  0
   -0.6963   -2.2691    0.0000 N   0  0  0  0  0  0  0  0  0  0  0  0
   -2.0120   -1.5488    0.0000 C   0  0  0  0  0  0  0  0  0  0  0  0
   -3.4277   -2.0446    0.0000 C   0  0  0  0  0  0  0  0  0  0  0  0
  1  2  1  0
  2  3  2  0
  3  4  1  0
  4  5  2  0
  5  6  1  0
  7  6  1  1
  7  8  1  0
  8  9  1  0
  9 10  1  0
 10 11  1  0
 11 12  1  0
 12 13  1  1
  6 14  2  0
 14 15  1  0
 15 16  2  0
 16 17  1  0
 17 18  2  0
 18 19  1  0
 19 20  2  0
 14 21  1  0
 21 22  1  0
 22 23  2  0
 23  2  1  0
 22  5  1  0
 12  7  1  0
 20 15  1  0
M  CHG  1   9   1
M  END
> <Identifier>
WOMBAT32

> <hERG>
1

$$$$

     RDKit          2D

 25 27  0  0  0  0  0  0  0  0999 V2000
    9.9454   -1.7834    0.0000 C   0  0  0  0  0  0  0  0  0  0  0  0
    8.4472   -1.7108    0.0000 O   0  0  0  0  0  0  0  0  0  0  0  0
    7.7608   -0.3771    0.0000 C   0  0  0  0  0  0  0  0  0  0  0  0
    6.2626   -0.3045    0.0000 C   0  0  0  0  0  0  0  0  0  0  0  0
    5.5763    1.0292    0.0000 C   0  0  0  0  0  0  0  0  0  0  0  0
    4.0780    1.1018    0.0000 N   0  0  0  0  0  4  0  0  0  0  0  0
    3.2661   -0.1595    0.0000 C   0  0  0  0  0  0  0  0  0  0  0  0
    1.7679   -0.0870    0.0000 C   0  0  0  0  0  0  0  0  0  0  0  0
    1.0815    1.2468    0.0000 C   0  0  0  0  0  0  0  0  0  0  0  0
   -0.4167    1.3193    0.0000 N   0  0  0  0  0  0  0  0  0  0  0  0
   -1.2286    0.0581    0.0000 C   0  0  0  0  0  0  0  0  0  0  0  0
   -0.5423   -1.2757    0.0000 O   0  0  0  0  0  0  0  0  0  0  0  0
   -2.7269    0.1306    0.0000 C   0  0  0  0  0  0  0  0  0  0  0  0
   -3.4132    1.4644    0.0000 C   0  0  0  0  0  0  0  0  0  0  0  0
   -4.9114    1.5369    0.0000 C   0  0  0  0  0  0  0  0  0  0  0  0
   -5.5977    2.8707    0.0000 Cl  0  0  0  0  0  0  0  0  0  0  0  0
   -5.7234    0.2757    0.0000 C   0  0  0  0  0  0  0  0  0  0  0  0
   -7.2216    0.3482    0.0000 N   0  0  0  0  0  0  0  0  0  0  0  0
   -5.0371   -1.0581    0.0000 C   0  0  0  0  0  0  0  0  0  0  0  0
   -3.5388   -1.1306    0.0000 C   0  0  0  0  0  0  0  0  0  0  0  0
   -3.1448   -2.5780    0.0000 O   0  0  0  0  0  0  0  0  0  0  0  0
   -4.3995   -3.3999    0.0000 C   0  0  0  0  0  0  0  0  0  0  0  0
   -5.5690   -2.4606    0.0000 C   0  0  0  0  0  0  0  0  0  0  0  0
    1.8935    2.5081    0.0000 C   0  0  0  0  0  0  0  0  0  0  0  0
    3.3917    2.4355    0.0000 C   0  0  0  0  0  0  0  0  0  0  0  0
  1  2  1  0
  2  3  1  0
  3  4  1  0
  4  5  1  0
  5  6  1  0
  6  7  1  0
  7  8  1  0
  8  9  1  0
  9 10  1  0
 10 11  1  0
 11 12  2  0
 11 13  1  0
 13 14  2  0
 14 15  1  0
 15 16  1  0
 15 17  2  0
 17 18  1  0
 17 19  1  0
 19 20  2  0
 20 21  1  0
 21 22  1  0
 22 23  1  0
  9 24  1  0
 24 25  1  0
 25  6  1  0
 20 13  1  0
 23 19  1  0
M  CHG  1   6   1
M  END
> <Identifier>
PRUCALOPRIDE

> <hERG>
1

$$$$

     RDKit          2D

 29 32  0  0  0  0  0  0  0  0999 V2000
   -3.0519   -6.2926    0.0000 C   0  0  0  0  0  0  0  0  0  0  0  0
   -2.2374   -5.0331    0.0000 C   0  0  0  0  0  0  0  0  0  0  0  0
   -0.7396   -4.9517    0.0000 C   0  0  0  0  0  0  0  0  0  0  0  0
   -0.3542   -3.5020    0.0000 C   0  0  0  0  0  0  0  0  0  0  0  0
   -1.6138   -2.6875    0.0000 C   0  0  0  0  0  0  0  0  0  0  0  0
   -1.6951   -1.1897    0.0000 C   0  0  0  0  0  0  0  0  0  0  0  0
   -0.4387   -0.3703    0.0000 N   0  0  0  0  0  0  0  0  0  0  0  0
   -0.5201    1.1274    0.0000 C   0  0  0  0  0  0  0  0  0  0  0  0
    0.7363    1.9468    0.0000 N   0  0  0  0  0  0  0  0  0  0  0  0
    2.0741    1.2684    0.0000 C   0  0  0  0  0  0  0  0  0  0  0  0
    2.1555   -0.2294    0.0000 O   0  0  0  0  0  0  0  0  0  0  0  0
    3.3306    2.0878    0.0000 C   0  0  0  0  0  0  0  0  0  0  0  0
    4.6684    1.4094    0.0000 C   0  0  0  0  0  0  0  0  0  0  0  0
    4.7498   -0.0884    0.0000 C   0  0  0  0  0  0  0  0  0  0  0  0
    6.0876   -0.7668    0.0000 C   0  0  0  0  0  0  0  0  0  0  0  0
    7.3440    0.0526    0.0000 N   0  0  0  0  0  0  0  0  0  0  0  0
    8.6819   -0.6258    0.0000 C   0  0  0  0  0  0  0  0  0  0  0  0
    7.2626    1.5504    0.0000 C   0  0  0  0  0  0  0  0  0  0  0  0
    5.9248    2.2288    0.0000 C   0  0  0  0  0  0  0  0  0  0  0  0
   -1.8579    1.8059    0.0000 C   0  0  0  0  0  0  0  0  0  0  0  0
   -3.1144    0.9865    0.0000 C   0  0  0  0  0  0  0  0  0  0  0  0
   -4.4522    1.6649    0.0000 N   0  0  0  0  0  0  0  0  0  0  0  0
   -5.7874    0.9813    0.0000 N   0  0  0  0  0  0  0  0  0  0  0  0
   -6.8501    2.0399    0.0000 C   0  0  0  0  0  0  0  0  0  0  0  0
   -6.1717    3.3778    0.0000 C   0  0  0  0  0  0  0  0  0  0  0  0
   -4.6897    3.1460    0.0000 C   0  0  0  0  0  0  0  0  0  0  0  0
   -3.6311    4.2087    0.0000 C   0  0  0  0  0  0  0  0  0  0  0  0
   -3.0330   -0.5113    0.0000 N   0  0  0  0  0  0  0  0  0  0  0  0
   -2.7777   -3.6337    0.0000 O   0  0  0  0  0  0  0  0  0  0  0  0
  1  2  1  0
  2  3  2  0
  3  4  1  0
  4  5  2  0
  5  6  1  0
  6  7  2  0
  7  8  1  0
  8  9  1  0
  9 10  1  0
 10 11  2  0
 10 12  1  0
 12 13  1  0
 13 14  1  0
 14 15  1  0
 15 16  1  0
 16 17  1  0
 16 18  1  0
 18 19  1  0
  8 20  2  0
 20 21  1  0
 21 22  1  0
 22 23  1  0
 23 24  2  0
 24 25  1  0
 25 26  2  0
 26 27  1  0
 21 28  2  0
  5 29  1  0
 29  2  1  0
 28  6  1  0
 19 13  1  0
 26 22  1  0
M  END
> <Identifier>
2-AMINO-N-PYRIMIDIN-4-YLACETAMIDE-4

> <hERG>
1

$$$$

     RDKit          2D

  8  7  0  0  0  0  0  0  0  0999 V2000
    0.7500    1.5000    0.0000 C   0  0  0  0  0  0  0  0  0  0  0  0
    0.7500   -0.0000    0.0000 C   0  0  0  0  0  0  0  0  0  0  0  0
    0.7500   -1.5000    0.0000 C   0  0  0  0  0  0  0  0  0  0  0  0
    2.2500   -0.0000    0.0000 O   0  0  0  0  0  0  0  0  0  0  0  0
   -0.7500    0.0000    0.0000 C   0  0  0  0  0  0  0  0  0  0  0  0
   -2.2500    0.0000    0.0000 Cl  0  0  0  0  0  0  0  0  0  0  0  0
   -0.7500   -1.5000    0.0000 Cl  0  0  0  0  0  0  0  0  0  0  0  0
   -0.7500    1.5000    0.0000 Cl  0  0  0  0  0  0  0  0  0  0  0  0
  1  2  1  0
  2  3  1  0
  2  4  1  0
  2  5  1  0
  5  6  1  0
  5  7  1  0
  5  8  1  0
M  END
> <Identifier>
CHLOROBUTANOL

> <hERG>
1

$$$$

     RDKit          2D

 22 25  0  0  0  0  0  0  0  0999 V2000
   -5.6868   -0.2011    0.0000 Cl  0  0  0  0  0  0  0  0  0  0  0  0
   -4.1869   -0.1850    0.0000 C   0  0  0  0  0  0  0  0  0  0  0  0
   -3.4509    1.1220    0.0000 C   0  0  0  0  0  0  0  0  0  0  0  0
   -1.9510    1.1381    0.0000 C   0  0  0  0  0  0  0  0  0  0  0  0
   -1.1871   -0.1528    0.0000 C   0  0  0  0  0  0  0  0  0  0  0  0
   -1.9231   -1.4599    0.0000 C   0  0  0  0  0  0  0  0  0  0  0  0
   -3.4230   -1.4759    0.0000 C   0  0  0  0  0  0  0  0  0  0  0  0
   -1.3602   -2.8502    0.0000 C   0  0  0  0  0  0  0  0  0  0  0  0
    0.0778   -3.2769    0.0000 C   0  0  0  0  0  0  0  0  0  0  0  0
    1.3081   -2.4187    0.0000 C   0  0  0  0  0  0  0  0  0  0  0  0
    2.5564   -3.2504    0.0000 C   0  0  0  0  0  0  0  0  0  0  0  0
    3.9008   -2.5851    0.0000 C   0  0  0  0  0  0  0  0  0  0  0  0
    3.9969   -1.0882    0.0000 C   0  0  0  0  0  0  0  0  0  0  0  0
    2.7485   -0.2565    0.0000 N   0  0  0  0  0  0  0  0  0  0  0  0
    1.4041   -0.9218    0.0000 C   0  0  0  0  0  0  0  0  0  0  0  0
    0.2937    0.0866    0.0000 C   0  0  0  0  0  0  0  0  0  0  0  0
    0.7204    1.5246    0.0000 C   0  0  0  0  0  0  0  0  0  0  0  0
    2.1791    1.8741    0.0000 C   0  0  0  0  0  0  0  0  0  0  0  0
    2.6059    3.3121    0.0000 C   0  0  0  0  0  0  0  0  0  0  0  0
    1.5739    4.4007    0.0000 N   0  0  0  0  0  4  0  0  0  0  0  0
    0.1151    4.0512    0.0000 C   0  0  0  0  0  0  0  0  0  0  0  0
   -0.3116    2.6132    0.0000 C   0  0  0  0  0  0  0  0  0  0  0  0
  1  2  1  0
  2  3  2  0
  3  4  1  0
  4  5  2  0
  5  6  1  0
  6  7  2  0
  6  8  1  0
  8  9  1  0
  9 10  1  0
 10 11  2  0
 11 12  1  0
 12 13  2  0
 13 14  1  0
 14 15  2  0
 15 16  1  0
 16 17  2  0
 17 18  1  0
 18 19  1  0
 19 20  1  0
 20 21  1  0
 21 22  1  0
  7  2  1  0
 15 10  1  0
 22 17  1  0
 16  5  1  0
M  CHG  1  20   1
M  END
> <Identifier>
DESLORATIDINE

> <hERG>
1

$$$$

     RDKit          2D

 31 35  0  0  0  0  0  0  0  0999 V2000
    4.9487   -3.4430    0.0000 C   0  0  0  0  0  0  0  0  0  0  0  0
    5.3171   -1.9890    0.0000 O   0  0  0  0  0  0  0  0  0  0  0  0
    4.2421   -0.9429    0.0000 C   0  0  0  0  0  0  0  0  0  0  0  0
    2.7986   -1.3509    0.0000 C   0  0  0  0  0  0  0  0  0  0  0  0
    1.7236   -0.3048    0.0000 C   0  0  0  0  0  0  0  0  0  0  0  0
    0.2801   -0.7128    0.0000 N   0  0  0  0  0  0  0  0  0  0  0  0
   -0.0883   -2.1669    0.0000 C   0  0  0  0  0  0  0  0  0  0  0  0
   -1.5317   -2.5749    0.0000 N   0  0  0  0  0  0  0  0  0  0  0  0
   -2.6068   -1.5288    0.0000 C   0  0  0  0  0  0  0  0  0  0  0  0
   -4.1035   -1.6277    0.0000 C   0  0  0  0  0  0  0  0  0  0  0  0
   -4.6601   -0.2348    0.0000 C   0  0  0  0  0  0  0  0  0  0  0  0
   -6.1142    0.1336    0.0000 C   0  0  0  0  0  0  0  0  0  0  0  0
   -6.5222    1.5770    0.0000 C   0  0  0  0  0  0  0  0  0  0  0  0
   -7.9762    1.9454    0.0000 C   0  0  0  0  0  0  0  0  0  0  0  0
   -9.0223    0.8704    0.0000 C   0  0  0  0  0  0  0  0  0  0  0  0
  -10.4764    1.2388    0.0000 Cl  0  0  0  0  0  0  0  0  0  0  0  0
   -8.6143   -0.5731    0.0000 C   0  0  0  0  0  0  0  0  0  0  0  0
   -7.1603   -0.9415    0.0000 C   0  0  0  0  0  0  0  0  0  0  0  0
   -3.5074    0.7250    0.0000 S   0  0  0  0  0  0  0  0  0  0  0  0
   -2.2384   -0.0747    0.0000 C   0  0  0  0  0  0  0  0  0  0  0  0
   -0.7949    0.3333    0.0000 C   0  0  0  0  0  0  0  0  0  0  0  0
   -0.4265    1.7873    0.0000 O   0  0  0  0  0  0  0  0  0  0  0  0
    2.0920    1.1492    0.0000 C   0  0  0  0  0  0  0  0  0  0  0  0
    3.5354    1.5572    0.0000 C   0  0  0  0  0  0  0  0  0  0  0  0
    4.6105    0.5111    0.0000 C   0  0  0  0  0  0  0  0  0  0  0  0
    6.0539    0.9191    0.0000 N   0  0  0  0  0  0  0  0  0  0  0  0
    6.5723    2.3267    0.0000 C   0  0  0  0  0  0  0  0  0  0  0  0
    8.0712    2.2687    0.0000 C   0  0  0  0  0  0  0  0  0  0  0  0
    8.4792    0.8252    0.0000 C   0  0  0  0  0  0  0  0  0  0  0  0
    9.8867    0.3068    0.0000 O   0  0  0  0  0  0  0  0  0  0  0  0
    7.2324   -0.0088    0.0000 C   0  0  0  0  0  0  0  0  0  0  0  0
  1  2  1  0
  2  3  1  0
  3  4  2  0
  4  5  1  0
  5  6  1  0
  6  7  1  0
  7  8  2  0
  8  9  1  0
  9 10  1  0
 10 11  2  0
 11 12  1  0
 12 13  2  0
 13 14  1  0
 14 15  2  0
 15 16  1  0
 15 17  1  0
 17 18  2  0
 11 19  1  0
 19 20  1  0
 20 21  1  0
 21 22  2  0
  5 23  2  0
 23 24  1  0
 24 25  2  0
 25 26  1  0
 26 27  1  0
 27 28  1  0
 28 29  1  0
 29 30  1  6
 29 31  1  0
 25  3  1  0
 31 26  1  0
 21  6  1  0
 20  9  2  0
 18 12  1  0
M  END
> <Identifier>
6-(4-CHLOROPHENYL)-3-{4-[(3S)-3-HYDROXYPYRROLIDIN-1-YL]-3-METHOXYPHENYL}THIENO[3,2-D]PYRIMIDIN-4(3H)-ONE

> <hERG>
1

$$$$

     RDKit          2D

 22 25  0  0  0  0  0  0  0  0999 V2000
   -5.4020   -2.5849    0.0000 Cl  0  0  0  0  0  0  0  0  0  0  0  0
   -4.4151   -1.4553    0.0000 C   0  0  0  0  0  0  0  0  0  0  0  0
   -4.8999   -0.0358    0.0000 C   0  0  0  0  0  0  0  0  0  0  0  0
   -3.9130    1.0938    0.0000 C   0  0  0  0  0  0  0  0  0  0  0  0
   -2.4413    0.8039    0.0000 C   0  0  0  0  0  0  0  0  0  0  0  0
   -1.9564   -0.6156    0.0000 C   0  0  0  0  0  0  0  0  0  0  0  0
   -2.9433   -1.7452    0.0000 C   0  0  0  0  0  0  0  0  0  0  0  0
   -0.5444   -1.1215    0.0000 N   0  0  0  0  0  0  0  0  0  0  0  0
    0.7316   -0.3330    0.0000 C   0  0  0  0  0  0  0  0  0  0  0  0
    1.9957   -1.1405    0.0000 N   0  0  0  0  0  0  0  0  0  0  0  0
    1.9285   -2.6390    0.0000 C   0  0  0  0  0  0  0  0  0  0  0  0
    3.1926   -3.4465    0.0000 C   0  0  0  0  0  0  0  0  0  0  0  0
    4.5239   -2.7555    0.0000 N   0  0  0  0  0  4  0  0  0  0  0  0
    4.5912   -1.2570    0.0000 C   0  0  0  0  0  0  0  0  0  0  0  0
    3.3271   -0.4495    0.0000 C   0  0  0  0  0  0  0  0  0  0  0  0
    0.9107    1.1563    0.0000 C   0  0  0  0  0  0  0  0  0  0  0  0
    2.3625    1.5337    0.0000 C   0  0  0  0  0  0  0  0  0  0  0  0
    2.7615    2.9796    0.0000 C   0  0  0  0  0  0  0  0  0  0  0  0
    1.7088    4.0482    0.0000 C   0  0  0  0  0  0  0  0  0  0  0  0
    0.2570    3.6708    0.0000 C   0  0  0  0  0  0  0  0  0  0  0  0
   -0.1420    2.2248    0.0000 C   0  0  0  0  0  0  0  0  0  0  0  0
   -1.6338    2.0680    0.0000 N   0  0  0  0  0  0  0  0  0  0  0  0
  1  2  1  0
  2  3  2  0
  3  4  1  0
  4  5  2  0
  5  6  1  0
  6  7  2  0
  6  8  1  0
  8  9  2  0
  9 10  1  0
 10 11  1  0
 11 12  1  0
 12 13  1  0
 13 14  1  0
 14 15  1  0
  9 16  1  0
 16 17  2  0
 17 18  1  0
 18 19  2  0
 19 20  1  0
 20 21  2  0
 21 22  1  0
  7  2  1  0
 15 10  1  0
 21 16  1  0
 22  5  1  0
M  CHG  1  13   1
M  END
> <Identifier>
NORCLOZAPINE

> <hERG>
1

$$$$

     RDKit          2D

 20 22  0  0  0  0  0  0  0  0999 V2000
    2.5058    3.9764    0.0000 C   0  0  0  0  0  0  0  0  0  0  0  0
    2.8572    2.5181    0.0000 C   0  0  0  0  0  0  0  0  0  0  0  0
    4.2957    2.0933    0.0000 O   0  0  0  0  0  0  0  0  0  0  0  0
    1.7699    1.4847    0.0000 C   0  0  0  0  0  0  0  0  0  0  0  0
    0.2948    1.7569    0.0000 C   0  0  0  0  0  0  0  0  0  0  0  0
   -0.4198    0.4380    0.0000 N   0  0  0  0  0  0  0  0  0  0  0  0
   -1.9068    0.2410    0.0000 C   0  0  0  0  0  0  0  0  0  0  0  0
   -2.8209    1.4303    0.0000 C   0  0  0  0  0  0  0  0  0  0  0  0
   -4.3080    1.2333    0.0000 C   0  0  0  0  0  0  0  0  0  0  0  0
   -4.8808   -0.1530    0.0000 C   0  0  0  0  0  0  0  0  0  0  0  0
   -6.3678   -0.3500    0.0000 F   0  0  0  0  0  0  0  0  0  0  0  0
   -3.9667   -1.3423    0.0000 C   0  0  0  0  0  0  0  0  0  0  0  0
   -2.4797   -1.1453    0.0000 C   0  0  0  0  0  0  0  0  0  0  0  0
    0.6136   -0.6492    0.0000 C   0  0  0  0  0  0  0  0  0  0  0  0
    0.4971   -2.1446    0.0000 C   0  0  0  0  0  0  0  0  0  0  0  0
    1.7340   -2.9932    0.0000 C   0  0  0  0  0  0  0  0  0  0  0  0
    3.0874   -2.3464    0.0000 C   0  0  0  0  0  0  0  0  0  0  0  0
    4.3243   -3.1949    0.0000 Cl  0  0  0  0  0  0  0  0  0  0  0  0
    3.2038   -0.8509    0.0000 C   0  0  0  0  0  0  0  0  0  0  0  0
    1.9670   -0.0023    0.0000 C   0  0  0  0  0  0  0  0  0  0  0  0
  2  1  1  1
  2  3  1  0
  2  4  1  0
  4  5  2  0
  5  6  1  0
  6  7  1  0
  7  8  2  0
  8  9  1  0
  9 10  2  0
 10 11  1  0
 10 12  1  0
 12 13  2  0
  6 14  1  0
 14 15  2  0
 15 16  1  0
 16 17  2  0
 17 18  1  0
 17 19  1  0
 19 20  2  0
 20  4  1  0
 13  7  1  0
 20 14  1  0
M  END
> <Identifier>
BMCL20031829_18

> <hERG>
1

$$$$

     RDKit          2D

 14 15  0  0  0  0  0  0  0  0999 V2000
    2.4375    2.3236    0.0000 C   0  0  0  0  0  0  0  0  0  0  0  0
    1.4877    1.1627    0.0000 N   0  0  0  0  0  0  0  0  0  0  0  0
    0.0074    1.4048    0.0000 C   0  0  0  0  0  0  0  0  0  0  0  0
   -0.5231    2.8079    0.0000 O   0  0  0  0  0  0  0  0  0  0  0  0
   -0.9425    0.2439    0.0000 C   0  0  0  0  0  0  0  0  0  0  0  0
   -0.4120   -1.1592    0.0000 C   0  0  0  0  0  0  0  0  0  0  0  0
   -1.5825   -2.0973    0.0000 N   0  0  0  0  0  0  0  0  0  0  0  0
   -2.8364   -1.2740    0.0000 C   0  0  0  0  0  0  0  0  0  0  0  0
   -2.4408    0.1729    0.0000 N   0  0  0  0  0  0  0  0  0  0  0  0
   -3.3789    1.3434    0.0000 C   0  0  0  0  0  0  0  0  0  0  0  0
    1.0683   -1.4013    0.0000 N   0  0  0  0  0  0  0  0  0  0  0  0
    1.5988   -2.8044    0.0000 C   0  0  0  0  0  0  0  0  0  0  0  0
    2.0182   -0.2404    0.0000 C   0  0  0  0  0  0  0  0  0  0  0  0
    3.4985   -0.4825    0.0000 O   0  0  0  0  0  0  0  0  0  0  0  0
  1  2  1  0
  2  3  1  0
  3  4  2  0
  3  5  1  0
  5  6  2  0
  6  7  1  0
  7  8  2  0
  8  9  1  0
  9 10  1  0
  6 11  1  0
 11 12  1  0
 11 13  1  0
 13 14  2  0
 13  2  1  0
  9  5  1  0
M  END
> <Identifier>
CAFFEINE

> <hERG>
1

$$$$

     RDKit          2D

 21 24  0  0  0  0  0  0  0  0999 V2000
   -4.5739   -1.7147    0.0000 C   0  0  0  0  0  0  0  0  0  0  0  0
   -3.9827   -0.3361    0.0000 C   0  0  0  0  0  0  0  0  0  0  0  0
   -2.4932   -0.1588    0.0000 C   0  0  0  0  0  0  0  0  0  0  0  0
   -1.5949   -1.3600    0.0000 C   0  0  0  0  0  0  0  0  0  0  0  0
   -0.1054   -1.1827    0.0000 C   0  0  0  0  0  0  0  0  0  0  0  0
    0.9135   -2.2834    0.0000 N   0  0  0  0  0  0  0  0  0  0  0  0
    2.2753   -1.6545    0.0000 C   0  0  0  0  0  0  0  0  0  0  0  0
    3.6539   -2.2457    0.0000 C   0  0  0  0  0  0  0  0  0  0  0  0
    4.8552   -1.3473    0.0000 C   0  0  0  0  0  0  0  0  0  0  0  0
    4.6778    0.1422    0.0000 C   0  0  0  0  0  0  0  0  0  0  0  0
    3.2992    0.7333    0.0000 C   0  0  0  0  0  0  0  0  0  0  0  0
    2.0980   -0.1650    0.0000 C   0  0  0  0  0  0  0  0  0  0  0  0
    0.6266    0.1266    0.0000 C   0  0  0  0  0  0  0  0  0  0  0  0
   -0.0024    1.4884    0.0000 C   0  0  0  0  0  0  0  0  0  0  0  0
    0.8625    2.7139    0.0000 C   0  0  0  0  0  0  0  0  0  0  0  0
    0.2336    4.0757    0.0000 C   0  0  0  0  0  0  0  0  0  0  0  0
   -1.2602    4.2119    0.0000 C   0  0  0  0  0  0  0  0  0  0  0  0
   -2.1251    2.9863    0.0000 N   0  0  0  0  0  4  0  0  0  0  0  0
   -1.4962    1.6246    0.0000 C   0  0  0  0  0  0  0  0  0  0  0  0
   -2.1861   -2.7386    0.0000 C   0  0  0  0  0  0  0  0  0  0  0  0
   -3.6755   -2.9160    0.0000 C   0  0  0  0  0  0  0  0  0  0  0  0
  1  2  2  0
  2  3  1  0
  3  4  2  0
  4  5  1  0
  5  6  1  0
  6  7  1  0
  7  8  2  0
  8  9  1  0
  9 10  2  0
 10 11  1  0
 11 12  2  0
 12 13  1  0
 14 13  1  6
 14 15  1  0
 15 16  1  0
 16 17  1  0
 17 18  1  0
 18 19  1  0
  4 20  1  0
 20 21  2  0
 21  1  1  0
 13  5  2  0
 19 14  1  0
 12  7  1  0
M  CHG  1  18   1
M  END
> <Identifier>
WOMBAT29

> <hERG>
1

$$$$

     RDKit          2D

 32 36  0  0  0  0  0  0  0  0999 V2000
   -8.2872   -5.0748    0.0000 N   0  0  0  0  0  0  0  0  0  0  0  0
   -7.8194   -3.6496    0.0000 C   0  0  0  0  0  0  0  0  0  0  0  0
   -7.3515   -2.2244    0.0000 C   0  0  0  0  0  0  0  0  0  0  0  0
   -8.3519   -1.1067    0.0000 C   0  0  0  0  0  0  0  0  0  0  0  0
   -7.8841    0.3185    0.0000 C   0  0  0  0  0  0  0  0  0  0  0  0
   -6.4159    0.6259    0.0000 C   0  0  0  0  0  0  0  0  0  0  0  0
   -5.9481    2.0511    0.0000 C   0  0  0  0  0  0  0  0  0  0  0  0
   -6.9485    3.1688    0.0000 O   0  0  0  0  0  0  0  0  0  0  0  0
   -4.4800    2.3586    0.0000 C   0  0  0  0  0  0  0  0  0  0  0  0
   -3.4796    1.2408    0.0000 C   0  0  0  0  0  0  0  0  0  0  0  0
   -2.0115    1.5483    0.0000 C   0  0  0  0  0  0  0  0  0  0  0  0
   -1.5437    2.9735    0.0000 O   0  0  0  0  0  0  0  0  0  0  0  0
   -1.0111    0.4306    0.0000 N   0  0  0  0  0  0  0  0  0  0  0  0
    0.4570    0.7380    0.0000 C   0  0  0  0  0  0  0  0  0  0  0  0
    1.4574   -0.3797    0.0000 C   0  0  0  0  0  0  0  0  0  0  0  0
    2.9255   -0.0722    0.0000 C   0  0  0  0  0  0  0  0  0  0  0  0
    3.3933    1.3529    0.0000 N   0  0  0  0  0  0  0  0  0  0  0  0
    4.8615    1.6604    0.0000 C   0  0  0  0  0  0  0  0  0  0  0  0
    5.8618    0.5427    0.0000 C   0  0  0  0  0  0  0  0  0  0  0  0
    5.3940   -0.8825    0.0000 C   0  0  0  0  0  0  0  0  0  0  0  0
    6.3944   -2.0003    0.0000 C   0  0  0  0  0  0  0  0  0  0  0  0
    7.8625   -1.6928    0.0000 C   0  0  0  0  0  0  0  0  0  0  0  0
    8.3303   -0.2676    0.0000 C   0  0  0  0  0  0  0  0  0  0  0  0
    7.3300    0.8501    0.0000 C   0  0  0  0  0  0  0  0  0  0  0  0
    9.8303   -0.2721    0.0000 O   0  0  0  0  0  0  0  0  0  0  0  0
   10.2895   -1.7001    0.0000 C   0  0  0  0  0  0  0  0  0  0  0  0
    9.0734   -2.5781    0.0000 O   0  0  0  0  0  0  0  0  0  0  0  0
    2.3930    2.4707    0.0000 C   0  0  0  0  0  0  0  0  0  0  0  0
    0.9248    2.1632    0.0000 C   0  0  0  0  0  0  0  0  0  0  0  0
   -3.9474   -0.1843    0.0000 O   0  0  0  0  0  0  0  0  0  0  0  0
   -5.4156   -0.4918    0.0000 C   0  0  0  0  0  0  0  0  0  0  0  0
   -5.8834   -1.9170    0.0000 C   0  0  0  0  0  0  0  0  0  0  0  0
  1  2  3  0
  2  3  1  0
  3  4  2  0
  4  5  1  0
  5  6  2  0
  6  7  1  0
  7  8  2  0
  7  9  1  0
  9 10  2  0
 10 11  1  0
 11 12  2  0
 11 13  1  0
 13 14  1  0
 14 15  1  0
 15 16  1  0
 16 17  1  0
 17 18  1  0
 18 19  1  0
 19 20  2  0
 20 21  1  0
 21 22  2  0
 22 23  1  0
 23 24  2  0
 23 25  1  0
 25 26  1  0
 26 27  1  0
 17 28  1  0
 28 29  1  0
 10 30  1  0
 30 31  1  0
 31 32  2  0
 32  3  1  0
 31  6  1  0
 29 14  1  0
 24 19  1  0
 27 22  1  0
M  END
> <Identifier>
JMC20066569-23

> <hERG>
1

$$$$

     RDKit          2D

 22 25  0  0  0  0  0  0  0  0999 V2000
   -3.6840    3.1964    0.0000 Cl  0  0  0  0  0  0  0  0  0  0  0  0
   -2.2440    2.7766    0.0000 C   0  0  0  0  0  0  0  0  0  0  0  0
   -1.1603    3.8138    0.0000 C   0  0  0  0  0  0  0  0  0  0  0  0
    0.2797    3.3940    0.0000 C   0  0  0  0  0  0  0  0  0  0  0  0
    0.6361    1.9369    0.0000 C   0  0  0  0  0  0  0  0  0  0  0  0
   -0.4475    0.8997    0.0000 C   0  0  0  0  0  0  0  0  0  0  0  0
   -1.8875    1.3195    0.0000 C   0  0  0  0  0  0  0  0  0  0  0  0
   -0.3122   -0.5942    0.0000 C   0  0  0  0  0  0  0  0  0  0  0  0
   -1.5994   -1.3642    0.0000 N   0  0  0  0  0  0  0  0  0  0  0  0
   -2.9099   -0.6345    0.0000 C   0  0  0  0  0  0  0  0  0  0  0  0
   -4.1972   -1.4046    0.0000 C   0  0  0  0  0  0  0  0  0  0  0  0
   -4.1739   -2.9044    0.0000 N   0  0  0  0  0  0  0  0  0  0  0  0
   -2.8634   -3.6341    0.0000 C   0  0  0  0  0  0  0  0  0  0  0  0
   -1.5761   -2.8641    0.0000 C   0  0  0  0  0  0  0  0  0  0  0  0
    0.9402   -1.4198    0.0000 N   0  0  0  0  0  0  0  0  0  0  0  0
    2.3665   -0.9555    0.0000 C   0  0  0  0  0  0  0  0  0  0  0  0
    3.3198   -2.1136    0.0000 C   0  0  0  0  0  0  0  0  0  0  0  0
    4.7994   -1.8670    0.0000 C   0  0  0  0  0  0  0  0  0  0  0  0
    5.3257   -0.4624    0.0000 C   0  0  0  0  0  0  0  0  0  0  0  0
    4.3724    0.6957    0.0000 C   0  0  0  0  0  0  0  0  0  0  0  0
    2.8928    0.4492    0.0000 C   0  0  0  0  0  0  0  0  0  0  0  0
    2.1227    1.7364    0.0000 O   0  0  0  0  0  0  0  0  0  0  0  0
  1  2  1  0
  2  3  2  0
  3  4  1  0
  4  5  2  0
  5  6  1  0
  6  7  2  0
  6  8  1  0
  8  9  1  0
  9 10  1  0
 10 11  1  0
 11 12  1  0
 12 13  1  0
 13 14  1  0
  8 15  2  0
 15 16  1  0
 16 17  2  0
 17 18  1  0
 18 19  2  0
 19 20  1  0
 20 21  2  0
 21 22  1  0
  7  2  1  0
 14  9  1  0
 21 16  1  0
 22  5  1  0
M  END
> <Identifier>
AMOXAPINE

> <hERG>
1

$$$$

     RDKit          2D

 20 23  0  0  0  0  0  0  0  0999 V2000
   -5.8027   -0.6415    0.0000 C   0  0  0  0  0  0  0  0  0  0  0  0
   -4.4375   -1.2629    0.0000 O   0  0  0  0  0  0  0  0  0  0  0  0
   -3.2167   -0.3913    0.0000 C   0  0  0  0  0  0  0  0  0  0  0  0
   -3.3611    1.1018    0.0000 C   0  0  0  0  0  0  0  0  0  0  0  0
   -2.1404    1.9734    0.0000 C   0  0  0  0  0  0  0  0  0  0  0  0
   -0.7751    1.3519    0.0000 C   0  0  0  0  0  0  0  0  0  0  0  0
   -0.6307   -0.1411    0.0000 C   0  0  0  0  0  0  0  0  0  0  0  0
   -1.8515   -1.0127    0.0000 C   0  0  0  0  0  0  0  0  0  0  0  0
    0.7345   -0.7625    0.0000 C   0  0  0  0  0  0  0  0  0  0  0  0
    0.8790   -2.2556    0.0000 C   0  0  0  0  0  0  0  0  0  0  0  0
    2.2442   -2.8770    0.0000 C   0  0  0  0  0  0  0  0  0  0  0  0
    3.4650   -2.0054    0.0000 C   0  0  0  0  0  0  0  0  0  0  0  0
    3.3205   -0.5124    0.0000 C   0  0  0  0  0  0  0  0  0  0  0  0
    1.9553    0.1091    0.0000 C   0  0  0  0  0  0  0  0  0  0  0  0
    1.8109    1.6021    0.0000 C   0  0  0  0  0  0  0  0  0  0  0  0
    0.4456    2.2235    0.0000 C   0  0  0  0  0  0  0  0  0  0  0  0
    1.0464    1.2364    0.0000 N   0  0  0  0  0  0  0  0  0  0  0  0
    4.3969    1.8523    0.0000 C   0  0  0  0  0  0  0  0  0  0  0  0
    1.4092    0.3576    0.0000 C   0  0  0  0  0  0  0  0  0  0  0  0
    0.5083    0.0541    0.0000 C   0  0  0  0  0  0  0  0  0  0  0  0
  1  2  1  0
  2  3  1  0
  3  4  2  0
  4  5  1  0
  5  6  2  0
  6  7  1  0
  7  8  2  0
  7  9  1  0
  9 10  1  6
 10 11  1  0
 11 12  1  0
 12 13  1  0
 14 13  1  1
 14 15  1  0
 15 16  1  1
 15 17  1  0
 17 18  1  0
 17 19  1  0
 19 20  1  0
  8  3  1  0
 14  9  1  0
 16  6  1  0
 20  9  1  0
M  END
> <Identifier>
DEXTROMETHORPHAN

> <hERG>
1

$$$$

     RDKit          2D

 34 38  0  0  0  0  0  0  0  0999 V2000
  -12.6593   -2.9474    0.0000 C   0  0  0  0  0  0  0  0  0  0  0  0
  -11.1829   -3.2126    0.0000 O   0  0  0  0  0  0  0  0  0  0  0  0
  -10.2151   -2.0666    0.0000 C   0  0  0  0  0  0  0  0  0  0  0  0
   -8.7387   -2.3318    0.0000 C   0  0  0  0  0  0  0  0  0  0  0  0
   -7.7709   -1.1858    0.0000 O   0  0  0  0  0  0  0  0  0  0  0  0
   -6.2945   -1.4510    0.0000 C   0  0  0  0  0  0  0  0  0  0  0  0
   -5.3267   -0.3050    0.0000 C   0  0  0  0  0  0  0  0  0  0  0  0
   -4.3588    0.8410    0.0000 C   0  0  0  0  0  0  0  0  0  0  0  0
   -3.3910    1.9870    0.0000 C   0  0  0  0  0  0  0  0  0  0  0  0
   -1.8950    1.8776    0.0000 C   0  0  0  0  0  0  0  0  0  0  0  0
   -1.3286    3.2666    0.0000 C   0  0  0  0  0  0  0  0  0  0  0  0
    0.1279    3.6248    0.0000 C   0  0  0  0  0  0  0  0  0  0  0  0
    0.6943    5.0138    0.0000 N   0  0  0  0  0  0  0  0  0  0  0  0
    2.1903    4.9044    0.0000 N   0  0  0  0  0  0  0  0  0  0  0  0
    2.5485    3.4478    0.0000 C   0  0  0  0  0  0  0  0  0  0  0  0
    1.2739    2.6570    0.0000 C   0  0  0  0  0  0  0  0  0  0  0  0
    1.6322    1.2004    0.0000 C   0  0  0  0  0  0  0  0  0  0  0  0
    0.6644    0.0544    0.0000 O   0  0  0  0  0  0  0  0  0  0  0  0
    3.1282    1.0910    0.0000 C   0  0  0  0  0  0  0  0  0  0  0  0
    4.0479   -0.0940    0.0000 C   0  0  0  0  0  0  0  0  0  0  0  0
    5.5340    0.1101    0.0000 C   0  0  0  0  0  0  0  0  0  0  0  0
    6.4537   -1.0749    0.0000 C   0  0  0  0  0  0  0  0  0  0  0  0
    5.8874   -2.4639    0.0000 N   0  0  0  0  0  0  0  0  0  0  0  0
    4.4013   -2.6679    0.0000 C   0  0  0  0  0  0  0  0  0  0  0  0
    3.8350   -4.0569    0.0000 C   0  0  0  0  0  0  0  0  0  0  0  0
    4.7547   -5.2418    0.0000 N   0  0  0  0  0  0  0  0  0  0  0  0
    4.1884   -6.6308    0.0000 C   0  0  0  0  0  0  0  0  0  0  0  0
    6.2408   -5.0378    0.0000 C   0  0  0  0  0  0  0  0  0  0  0  0
    6.8071   -3.6488    0.0000 C   0  0  0  0  0  0  0  0  0  0  0  0
    6.1003    1.4991    0.0000 C   0  0  0  0  0  0  0  0  0  0  0  0
    5.1806    2.6840    0.0000 C   0  0  0  0  0  0  0  0  0  0  0  0
    3.6945    2.4800    0.0000 C   0  0  0  0  0  0  0  0  0  0  0  0
   -2.4746    4.2344    0.0000 C   0  0  0  0  0  0  0  0  0  0  0  0
   -3.7492    3.4436    0.0000 S   0  0  0  0  0  0  0  0  0  0  0  0
  1  2  1  0
  2  3  1  0
  3  4  1  0
  4  5  1  0
  5  6  1  0
  6  7  1  0
  7  8  3  0
  8  9  1  0
  9 10  2  0
 10 11  1  0
 11 12  1  0
 12 13  2  0
 13 14  1  0
 14 15  1  0
 15 16  2  0
 16 17  1  0
 17 18  2  0
 17 19  1  0
 19 20  2  0
 20 21  1  0
 21 22  1  0
 22 23  1  0
 23 24  1  0
 24 25  1  0
 25 26  1  0
 26 27  1  0
 26 28  1  0
 28 29  1  0
 21 30  2  0
 30 31  1  0
 31 32  2  0
 11 33  2  0
 33 34  1  0
 34  9  1  0
 16 12  1  0
 32 19  1  0
 32 15  1  0
 29 23  1  0
M  END
> <Identifier>
1,4-DIHYDROINDENO[1,2-C]PYRAZOL_50

> <hERG>
1

$$$$

     RDKit          2D

 30 33  0  0  0  0  0  0  0  0999 V2000
   -8.7856    3.7447    0.0000 C   0  0  0  0  0  0  0  0  0  0  0  0
   -9.1575    2.2915    0.0000 O   0  0  0  0  0  0  0  0  0  0  0  0
   -8.0849    1.2429    0.0000 C   0  0  0  0  0  0  0  0  0  0  0  0
   -6.6405    1.6475    0.0000 C   0  0  0  0  0  0  0  0  0  0  0  0
   -5.5679    0.5989    0.0000 C   0  0  0  0  0  0  0  0  0  0  0  0
   -5.9397   -0.8543    0.0000 C   0  0  0  0  0  0  0  0  0  0  0  0
   -4.8671   -1.9029    0.0000 C   0  0  0  0  0  0  0  0  0  0  0  0
   -3.4227   -1.4983    0.0000 N   0  0  0  0  0  0  0  0  0  0  0  0
   -2.3501   -2.5469    0.0000 C   0  0  0  0  0  0  0  0  0  0  0  0
   -0.9057   -2.1423    0.0000 C   0  0  0  0  0  0  0  0  0  0  0  0
   -0.5339   -0.6892    0.0000 C   0  0  0  0  0  0  0  0  0  0  0  0
    0.9105   -0.2846    0.0000 N   0  0  0  0  0  0  0  0  0  0  0  0
    1.9831   -1.3332    0.0000 C   0  0  0  0  0  0  0  0  0  0  0  0
    1.6113   -2.7864    0.0000 O   0  0  0  0  0  0  0  0  0  0  0  0
    3.4275   -0.9286    0.0000 C   0  0  0  0  0  0  0  0  0  0  0  0
    4.5001   -1.9772    0.0000 C   0  0  0  0  0  0  0  0  0  0  0  0
    5.9445   -1.5726    0.0000 C   0  0  0  0  0  0  0  0  0  0  0  0
    7.0171   -2.6212    0.0000 O   0  0  0  0  0  0  0  0  0  0  0  0
    6.3163   -0.1194    0.0000 C   0  0  0  0  0  0  0  0  0  0  0  0
    7.7607    0.2852    0.0000 C   0  0  0  0  0  0  0  0  0  0  0  0
    8.1325    1.7384    0.0000 C   0  0  0  0  0  0  0  0  0  0  0  0
    7.0600    2.7870    0.0000 C   0  0  0  0  0  0  0  0  0  0  0  0
    7.4318    4.2401    0.0000 F   0  0  0  0  0  0  0  0  0  0  0  0
    5.6155    2.3824    0.0000 C   0  0  0  0  0  0  0  0  0  0  0  0
    5.2437    0.9292    0.0000 C   0  0  0  0  0  0  0  0  0  0  0  0
    3.7993    0.5246    0.0000 O   0  0  0  0  0  0  0  0  0  0  0  0
   -1.6065    0.3594    0.0000 C   0  0  0  0  0  0  0  0  0  0  0  0
   -3.0509   -0.0452    0.0000 C   0  0  0  0  0  0  0  0  0  0  0  0
   -7.3841   -1.2589    0.0000 C   0  0  0  0  0  0  0  0  0  0  0  0
   -8.4567   -0.2103    0.0000 C   0  0  0  0  0  0  0  0  0  0  0  0
  1  2  1  0
  2  3  1  0
  3  4  2  0
  4  5  1  0
  5  6  2  0
  6  7  1  0
  7  8  1  0
  8  9  1  0
  9 10  1  0
 10 11  1  0
 11 12  1  0
 12 13  1  0
 13 14  2  0
 13 15  1  0
 15 16  2  0
 16 17  1  0
 17 18  2  0
 17 19  1  0
 19 20  2  0
 20 21  1  0
 21 22  2  0
 22 23  1  0
 22 24  1  0
 24 25  2  0
 25 26  1  0
 11 27  1  0
 27 28  1  0
  6 29  1  0
 29 30  2  0
 30  3  1  0
 28  8  1  0
 26 15  1  0
 25 19  1  0
M  END
> <Identifier>
JMC20066569-47

> <hERG>
1

$$$$

     RDKit          2D

 20 20  0  0  0  0  0  0  0  0999 V2000
   -7.2853    1.0156    0.0000 C   0  0  0  0  0  0  0  0  0  0  0  0
   -5.8609    1.4857    0.0000 C   0  0  0  0  0  0  0  0  0  0  0  0
   -4.7415    0.4871    0.0000 N   0  0  0  0  0  4  0  0  0  0  0  0
   -5.0466   -0.9815    0.0000 C   0  0  0  0  0  0  0  0  0  0  0  0
   -6.4711   -1.4516    0.0000 C   0  0  0  0  0  0  0  0  0  0  0  0
   -3.3171    0.9572    0.0000 C   0  0  0  0  0  0  0  0  0  0  0  0
   -2.1978   -0.0413    0.0000 C   0  0  0  0  0  0  0  0  0  0  0  0
   -0.7733    0.4288    0.0000 N   0  0  0  0  0  0  0  0  0  0  0  0
    0.3460   -0.5698    0.0000 C   0  0  0  0  0  0  0  0  0  0  0  0
    0.0409   -2.0384    0.0000 O   0  0  0  0  0  0  0  0  0  0  0  0
    1.7704   -0.0997    0.0000 C   0  0  0  0  0  0  0  0  0  0  0  0
    2.0755    1.3689    0.0000 C   0  0  0  0  0  0  0  0  0  0  0  0
    3.5000    1.8390    0.0000 C   0  0  0  0  0  0  0  0  0  0  0  0
    3.8051    3.3077    0.0000 Cl  0  0  0  0  0  0  0  0  0  0  0  0
    4.6193    0.8405    0.0000 C   0  0  0  0  0  0  0  0  0  0  0  0
    6.0437    1.3106    0.0000 N   0  0  0  0  0  0  0  0  0  0  0  0
    4.3142   -0.6282    0.0000 C   0  0  0  0  0  0  0  0  0  0  0  0
    2.8898   -1.0983    0.0000 C   0  0  0  0  0  0  0  0  0  0  0  0
    2.5847   -2.5669    0.0000 O   0  0  0  0  0  0  0  0  0  0  0  0
    3.7040   -3.5654    0.0000 C   0  0  0  0  0  0  0  0  0  0  0  0
  1  2  1  0
  2  3  1  0
  3  4  1  0
  4  5  1  0
  3  6  1  0
  6  7  1  0
  7  8  1  0
  8  9  1  0
  9 10  2  0
  9 11  1  0
 11 12  2  0
 12 13  1  0
 13 14  1  0
 13 15  2  0
 15 16  1  0
 15 17  1  0
 17 18  2  0
 18 19  1  0
 19 20  1  0
 18 11  1  0
M  CHG  1   3   1
M  END
> <Identifier>
METOCLOPRAMIDE

> <hERG>
1

$$$$

     RDKit          2D

 24 27  0  0  0  0  0  0  0  0999 V2000
   -6.0357   -2.0016    0.0000 F   0  0  0  0  0  0  0  0  0  0  0  0
   -4.6679   -1.3858    0.0000 C   0  0  0  0  0  0  0  0  0  0  0  0
   -4.5173    0.1066    0.0000 C   0  0  0  0  0  0  0  0  0  0  0  0
   -3.1495    0.7223    0.0000 C   0  0  0  0  0  0  0  0  0  0  0  0
   -1.9323   -0.1544    0.0000 C   0  0  0  0  0  0  0  0  0  0  0  0
   -0.4664    0.1636    0.0000 C   0  0  0  0  0  0  0  0  0  0  0  0
    0.1381    1.5364    0.0000 C   0  0  0  0  0  0  0  0  0  0  0  0
    1.6292    1.6993    0.0000 C   0  0  0  0  0  0  0  0  0  0  0  0
    2.2336    3.0721    0.0000 N   0  0  0  0  0  4  0  0  0  0  0  0
    1.3470    4.2820    0.0000 C   0  0  0  0  0  0  0  0  0  0  0  0
   -0.1442    4.1191    0.0000 C   0  0  0  0  0  0  0  0  0  0  0  0
   -0.7486    2.7463    0.0000 C   0  0  0  0  0  0  0  0  0  0  0  0
   -2.2397    2.5833    0.0000 F   0  0  0  0  0  0  0  0  0  0  0  0
    0.2890   -1.1324    0.0000 C   0  0  0  0  0  0  0  0  0  0  0  0
    1.7814   -1.2830    0.0000 C   0  0  0  0  0  0  0  0  0  0  0  0
    2.5646   -0.0038    0.0000 C   0  0  0  0  0  0  0  0  0  0  0  0
    4.0532    0.1815    0.0000 C   0  0  0  0  0  0  0  0  0  0  0  0
    5.1261   -0.8668    0.0000 C   0  0  0  0  0  0  0  0  0  0  0  0
    4.9754   -2.3592    0.0000 C   0  0  0  0  0  0  0  0  0  0  0  0
    3.7147   -3.1720    0.0000 C   0  0  0  0  0  0  0  0  0  0  0  0
    2.2932   -2.6930    0.0000 C   0  0  0  0  0  0  0  0  0  0  0  0
   -0.7101   -2.2512    0.0000 N   0  0  0  0  0  0  0  0  0  0  0  0
   -2.0830   -1.6468    0.0000 C   0  0  0  0  0  0  0  0  0  0  0  0
   -3.4507   -2.2625    0.0000 C   0  0  0  0  0  0  0  0  0  0  0  0
  1  2  1  0
  2  3  2  0
  3  4  1  0
  4  5  2  0
  5  6  1  0
  7  6  1  1
  7  8  1  0
  8  9  1  0
  9 10  1  0
 10 11  1  0
 11 12  1  0
 12 13  1  1
  6 14  2  0
 14 15  1  0
 15 16  1  0
 16 17  1  0
 17 18  1  0
 18 19  1  0
 19 20  1  0
 20 21  1  0
 14 22  1  0
 22 23  1  0
 23 24  2  0
 24  2  1  0
 23  5  1  0
 12  7  1  0
 21 15  1  0
M  CHG  1   9   1
M  END
> <Identifier>
WOMBAT37

> <hERG>
1

$$$$

     RDKit          2D

 21 23  0  0  0  0  0  0  0  0999 V2000
   -5.7199   -2.5061    0.0000 C   0  0  0  0  0  0  0  0  0  0  0  0
   -4.6183   -1.4881    0.0000 N   0  0  0  0  0  0  0  0  0  0  0  0
   -4.9490   -0.0251    0.0000 C   0  0  0  0  0  0  0  0  0  0  0  0
   -3.1858   -1.9332    0.0000 C   0  0  0  0  0  0  0  0  0  0  0  0
   -2.0841   -0.9152    0.0000 C   0  0  0  0  0  0  0  0  0  0  0  0
   -0.6517   -1.3602    0.0000 C   0  0  0  0  0  0  0  0  0  0  0  0
    0.4500   -0.3422    0.0000 C   0  0  0  0  0  0  0  0  0  0  0  0
    1.8452   -0.8931    0.0000 C   0  0  0  0  0  0  0  0  0  0  0  0
    1.8421   -2.3931    0.0000 C   0  0  0  0  0  0  0  0  0  0  0  0
    3.1396   -3.1457    0.0000 C   0  0  0  0  0  0  0  0  0  0  0  0
    4.4402   -2.3984    0.0000 C   0  0  0  0  0  0  0  0  0  0  0  0
    4.4432   -0.8984    0.0000 C   0  0  0  0  0  0  0  0  0  0  0  0
    3.1457   -0.1457    0.0000 C   0  0  0  0  0  0  0  0  0  0  0  0
    3.3723    1.3370    0.0000 C   0  0  0  0  0  0  0  0  0  0  0  0
    2.3543    2.4387    0.0000 C   0  0  0  0  0  0  0  0  0  0  0  0
    0.8583    2.3297    0.0000 C   0  0  0  0  0  0  0  0  0  0  0  0
    0.2102    3.6824    0.0000 C   0  0  0  0  0  0  0  0  0  0  0  0
   -1.2854    3.7976    0.0000 C   0  0  0  0  0  0  0  0  0  0  0  0
   -2.1329    2.5600    0.0000 C   0  0  0  0  0  0  0  0  0  0  0  0
   -1.4848    1.2072    0.0000 C   0  0  0  0  0  0  0  0  0  0  0  0
    0.0108    1.0920    0.0000 C   0  0  0  0  0  0  0  0  0  0  0  0
  1  2  1  0
  2  3  1  0
  2  4  1  0
  4  5  1  0
  5  6  1  0
  6  7  2  0
  7  8  1  0
  8  9  2  0
  9 10  1  0
 10 11  2  0
 11 12  1  0
 12 13  2  0
 13 14  1  0
 14 15  1  0
 15 16  1  0
 16 17  2  0
 17 18  1  0
 18 19  2  0
 19 20  1  0
 20 21  2  0
 21  7  1  0
 13  8  1  0
 21 16  1  0
M  END
> <Identifier>
AMITRIPTYLINE HYDROCHLORIDE

> <hERG>
1

$$$$

     RDKit          2D

 31 34  0  0  0  0  0  0  0  0999 V2000
   10.2848   -1.6658    0.0000 C   0  0  0  0  0  0  0  0  0  0  0  0
    8.8598   -2.1342    0.0000 C   0  0  0  0  0  0  0  0  0  0  0  0
    7.7417   -1.1343    0.0000 C   0  0  0  0  0  0  0  0  0  0  0  0
    6.3166   -1.6026    0.0000 C   0  0  0  0  0  0  0  0  0  0  0  0
    5.1985   -0.6027    0.0000 N   0  0  0  0  0  0  0  0  0  0  0  0
    3.7735   -1.0711    0.0000 C   0  0  0  0  0  0  0  0  0  0  0  0
    2.6554   -0.0711    0.0000 C   0  0  0  0  0  0  0  0  0  0  0  0
    2.9623    1.3971    0.0000 O   0  0  0  0  0  0  0  0  0  0  0  0
    1.2304   -0.5395    0.0000 C   0  0  0  0  0  0  0  0  0  0  0  0
    0.9235   -2.0078    0.0000 C   0  0  0  0  0  0  0  0  0  0  0  0
   -0.5015   -2.4761    0.0000 C   0  0  0  0  0  0  0  0  0  0  0  0
   -0.8084   -3.9444    0.0000 Cl  0  0  0  0  0  0  0  0  0  0  0  0
   -1.6196   -1.4762    0.0000 C   0  0  0  0  0  0  0  0  0  0  0  0
   -1.3127   -0.0079    0.0000 C   0  0  0  0  0  0  0  0  0  0  0  0
    0.1123    0.4604    0.0000 C   0  0  0  0  0  0  0  0  0  0  0  0
    0.1072    1.9604    0.0000 C   0  0  0  0  0  0  0  0  0  0  0  0
    1.2185    2.9679    0.0000 C   0  0  0  0  0  0  0  0  0  0  0  0
    0.9017    4.4340    0.0000 C   0  0  0  0  0  0  0  0  0  0  0  0
   -0.5264    4.8927    0.0000 C   0  0  0  0  0  0  0  0  0  0  0  0
   -0.8433    6.3589    0.0000 Cl  0  0  0  0  0  0  0  0  0  0  0  0
   -1.6377    3.8853    0.0000 C   0  0  0  0  0  0  0  0  0  0  0  0
   -1.3209    2.4191    0.0000 C   0  0  0  0  0  0  0  0  0  0  0  0
   -2.1985    1.2026    0.0000 C   0  0  0  0  0  0  0  0  0  0  0  0
   -3.6985    1.1975    0.0000 C   0  0  0  0  0  0  0  0  0  0  0  0
   -4.4441   -0.1040    0.0000 C   0  0  0  0  0  0  0  0  0  0  0  0
   -5.9441   -0.1091    0.0000 C   0  0  0  0  0  0  0  0  0  0  0  0
   -6.6897   -1.4107    0.0000 C   0  0  0  0  0  0  0  0  0  0  0  0
   -5.9353   -2.7072    0.0000 C   0  0  0  0  0  0  0  0  0  0  0  0
   -6.6809   -4.0087    0.0000 Cl  0  0  0  0  0  0  0  0  0  0  0  0
   -4.4353   -2.7021    0.0000 C   0  0  0  0  0  0  0  0  0  0  0  0
   -3.6897   -1.4005    0.0000 C   0  0  0  0  0  0  0  0  0  0  0  0
  1  2  1  0
  2  3  1  0
  3  4  1  0
  4  5  1  0
  5  6  1  0
  6  7  1  0
  7  8  1  1
  7  9  1  0
  9 10  2  0
 10 11  1  0
 11 12  1  0
 11 13  2  0
 13 14  1  0
 14 15  2  0
 15 16  1  0
 16 17  2  0
 17 18  1  0
 18 19  2  0
 19 20  1  0
 19 21  1  0
 21 22  2  0
 22 23  1  0
 23 24  2  0
 24 25  1  0
 25 26  2  0
 26 27  1  0
 27 28  2  0
 28 29  1  0
 28 30  1  0
 30 31  2  0
 15  9  1  0
 22 16  1  0
 31 25  1  0
 23 14  1  0
M  END
> <Identifier>
DESBUTYL-LUMEFANTRINE

> <hERG>
1

$$$$

     RDKit          2D

 19 20  0  0  0  0  0  0  0  0999 V2000
   -2.8177    3.2996    0.0000 C   0  0  0  0  0  0  0  0  0  0  0  0
   -2.2053    1.9303    0.0000 N   0  0  0  0  0  0  0  0  0  0  0  0
   -3.0850    0.7153    0.0000 C   0  0  0  0  0  0  0  0  0  0  0  0
   -0.7133    1.7760    0.0000 C   0  0  0  0  0  0  0  0  0  0  0  0
   -0.1009    0.4067    0.0000 C   0  0  0  0  0  0  0  0  0  0  0  0
    1.3911    0.2523    0.0000 C   0  0  0  0  0  0  0  0  0  0  0  0
    2.0035   -1.1170    0.0000 C   0  0  0  0  0  0  0  0  0  0  0  0
    3.4955   -1.2713    0.0000 C   0  0  0  0  0  0  0  0  0  0  0  0
    4.3752   -0.0563    0.0000 C   0  0  0  0  0  0  0  0  0  0  0  0
    5.8672   -0.2107    0.0000 O   0  0  0  0  0  0  0  0  0  0  0  0
    3.7628    1.3130    0.0000 C   0  0  0  0  0  0  0  0  0  0  0  0
    2.2708    1.4673    0.0000 C   0  0  0  0  0  0  0  0  0  0  0  0
   -0.9806   -0.8083    0.0000 C   0  0  0  0  0  0  0  0  0  0  0  0
    0.3687   -1.4636    0.0000 O   0  0  0  0  0  0  0  0  0  0  0  0
   -2.0244    0.2690    0.0000 C   0  0  0  0  0  0  0  0  0  0  0  0
   -3.4792   -0.0963    0.0000 C   0  0  0  0  0  0  0  0  0  0  0  0
   -3.8903   -1.5389    0.0000 C   0  0  0  0  0  0  0  0  0  0  0  0
   -2.8465   -2.6162    0.0000 C   0  0  0  0  0  0  0  0  0  0  0  0
   -1.3917   -2.2509    0.0000 C   0  0  0  0  0  0  0  0  0  0  0  0
  1  2  1  0
  2  3  1  0
  2  4  1  0
  5  4  1  1
  5  6  1  0
  6  7  2  0
  7  8  1  0
  8  9  2  0
  9 10  1  0
  9 11  1  0
 11 12  2  0
  5 13  1  0
 13 14  1  0
 13 15  1  0
 15 16  1  0
 16 17  1  0
 17 18  1  0
 18 19  1  0
 12  6  1  0
 19 13  1  0
M  END
> <Identifier>
DULOXETINE

> <hERG>
1

$$$$

     RDKit          2D

 27 30  0  0  0  0  0  0  0  0999 V2000
   -0.5619    3.6138    0.0000 N   0  0  0  0  0  0  0  0  0  0  0  0
   -1.8913    2.9191    0.0000 C   0  0  0  0  0  0  0  0  0  0  0  0
   -1.9544    1.4204    0.0000 C   0  0  0  0  0  0  0  0  0  0  0  0
   -3.2838    0.7257    0.0000 O   0  0  0  0  0  0  0  0  0  0  0  0
   -0.6880    0.6164    0.0000 N   0  0  0  0  0  0  0  0  0  0  0  0
    0.7067    1.1684    0.0000 C   0  0  0  0  0  0  0  0  0  0  0  0
    1.6627    0.0124    0.0000 C   0  0  0  0  0  0  0  0  0  0  0  0
    3.1597    0.1063    0.0000 C   0  0  0  0  0  0  0  0  0  0  0  0
    3.9896   -1.1432    0.0000 C   0  0  0  0  0  0  0  0  0  0  0  0
    5.4866   -1.0493    0.0000 C   0  0  0  0  0  0  0  0  0  0  0  0
    6.3165   -2.2988    0.0000 F   0  0  0  0  0  0  0  0  0  0  0  0
    6.1538    0.2941    0.0000 C   0  0  0  0  0  0  0  0  0  0  0  0
    5.3240    1.5437    0.0000 C   0  0  0  0  0  0  0  0  0  0  0  0
    3.8269    1.4498    0.0000 C   0  0  0  0  0  0  0  0  0  0  0  0
    2.9971    2.6993    0.0000 F   0  0  0  0  0  0  0  0  0  0  0  0
    0.8587   -1.2539    0.0000 C   0  0  0  0  0  0  0  0  0  0  0  0
   -0.5941   -0.8806    0.0000 C   0  0  0  0  0  0  0  0  0  0  0  0
   -1.7501   -1.8365    0.0000 C   0  0  0  0  0  0  0  0  0  0  0  0
   -3.1559   -1.3134    0.0000 C   0  0  0  0  0  0  0  0  0  0  0  0
   -4.3119   -2.2693    0.0000 C   0  0  0  0  0  0  0  0  0  0  0  0
   -4.0620   -3.7484    0.0000 C   0  0  0  0  0  0  0  0  0  0  0  0
   -2.6562   -4.2715    0.0000 C   0  0  0  0  0  0  0  0  0  0  0  0
   -2.4063   -5.7505    0.0000 O   0  0  0  0  0  0  0  0  0  0  0  0
   -1.5002   -3.3156    0.0000 C   0  0  0  0  0  0  0  0  0  0  0  0
   -3.1576    3.7231    0.0000 C   0  0  0  0  0  0  0  0  0  0  0  0
   -4.6563    3.7862    0.0000 C   0  0  0  0  0  0  0  0  0  0  0  0
   -3.8523    5.0525    0.0000 C   0  0  0  0  0  0  0  0  0  0  0  0
  2  1  1  6
  2  3  1  0
  3  4  2  0
  3  5  1  0
  5  6  1  0
  6  7  1  0
  7  8  1  0
  8  9  2  0
  9 10  1  0
 10 11  1  0
 10 12  2  0
 12 13  1  0
 13 14  2  0
 14 15  1  0
  7 16  2  0
 16 17  1  0
 17 18  1  1
 18 19  2  0
 19 20  1  0
 20 21  2  0
 21 22  1  0
 22 23  1  0
 22 24  2  0
  2 25  1  0
 25 26  1  0
 26 27  1  0
 17  5  1  0
 24 18  1  0
 27 25  1  0
 14  8  1  0
M  END
> <Identifier>
BMCL-16-2006-17782-16

> <hERG>
1

$$$$

     RDKit          2D

 33 37  0  0  0  0  0  0  0  0999 V2000
    2.6848   -2.7606    0.0000 O   0  0  0  0  0  0  0  0  0  0  0  0
    3.0505   -1.3059    0.0000 C   0  0  0  0  0  0  0  0  0  0  0  0
    1.9735   -0.2618    0.0000 N   0  0  0  0  0  0  0  0  0  0  0  0
    0.5309   -0.6724    0.0000 C   0  0  0  0  0  0  0  0  0  0  0  0
   -0.5461    0.3716    0.0000 C   0  0  0  0  0  0  0  0  0  0  0  0
   -1.9888   -0.0390    0.0000 C   0  0  0  0  0  0  0  0  0  0  0  0
   -2.3545   -1.4938    0.0000 N   0  0  0  0  0  0  0  0  0  0  0  0
   -3.7972   -1.9044    0.0000 C   0  0  0  0  0  0  0  0  0  0  0  0
   -4.8742   -0.8603    0.0000 C   0  0  0  0  0  0  0  0  0  0  0  0
   -4.5085    0.5944    0.0000 C   0  0  0  0  0  0  0  0  0  0  0  0
   -5.5855    1.6385    0.0000 C   0  0  0  0  0  0  0  0  0  0  0  0
   -7.0282    1.2278    0.0000 C   0  0  0  0  0  0  0  0  0  0  0  0
   -7.3939   -0.2269    0.0000 C   0  0  0  0  0  0  0  0  0  0  0  0
   -6.3169   -1.2710    0.0000 C   0  0  0  0  0  0  0  0  0  0  0  0
   -8.8904   -0.3287    0.0000 O   0  0  0  0  0  0  0  0  0  0  0  0
   -9.4496    1.0632    0.0000 C   0  0  0  0  0  0  0  0  0  0  0  0
  -10.7754    0.3616    0.0000 F   0  0  0  0  0  0  0  0  0  0  0  0
  -10.2860    2.3084    0.0000 F   0  0  0  0  0  0  0  0  0  0  0  0
   -8.2987    2.0252    0.0000 O   0  0  0  0  0  0  0  0  0  0  0  0
   -1.2775   -2.5378    0.0000 C   0  0  0  0  0  0  0  0  0  0  0  0
    0.1651   -2.1272    0.0000 C   0  0  0  0  0  0  0  0  0  0  0  0
    4.4932   -0.8952    0.0000 C   0  0  0  0  0  0  0  0  0  0  0  0
    5.5702   -1.9393    0.0000 C   0  0  0  0  0  0  0  0  0  0  0  0
    7.0129   -1.5286    0.0000 C   0  0  0  0  0  0  0  0  0  0  0  0
    8.0899   -2.5727    0.0000 O   0  0  0  0  0  0  0  0  0  0  0  0
    7.3786   -0.0739    0.0000 C   0  0  0  0  0  0  0  0  0  0  0  0
    8.8213    0.3368    0.0000 C   0  0  0  0  0  0  0  0  0  0  0  0
    9.1870    1.7915    0.0000 C   0  0  0  0  0  0  0  0  0  0  0  0
    8.1100    2.8356    0.0000 C   0  0  0  0  0  0  0  0  0  0  0  0
    8.4757    4.2903    0.0000 F   0  0  0  0  0  0  0  0  0  0  0  0
    6.6673    2.4249    0.0000 C   0  0  0  0  0  0  0  0  0  0  0  0
    6.3016    0.9702    0.0000 C   0  0  0  0  0  0  0  0  0  0  0  0
    4.8589    0.5595    0.0000 O   0  0  0  0  0  0  0  0  0  0  0  0
  1  2  2  0
  2  3  1  0
  3  4  1  0
  4  5  1  0
  5  6  1  0
  6  7  1  0
  7  8  1  0
  8  9  1  0
  9 10  2  0
 10 11  1  0
 11 12  2  0
 12 13  1  0
 13 14  2  0
 13 15  1  0
 15 16  1  0
 16 17  1  0
 16 18  1  0
 16 19  1  0
  7 20  1  0
 20 21  1  0
  2 22  1  0
 22 23  2  0
 23 24  1  0
 24 25  2  0
 24 26  1  0
 26 27  2  0
 27 28  1  0
 28 29  2  0
 29 30  1  0
 29 31  1  0
 31 32  2  0
 32 33  1  0
 21  4  1  0
 33 22  1  0
 14  9  1  0
 32 26  1  0
 19 12  1  0
M  END
> <Identifier>
JMC20066569-42

> <hERG>
1

$$$$

     RDKit          2D

 21 24  0  0  0  0  0  0  0  0999 V2000
   -4.5739   -1.7147    0.0000 C   0  0  0  0  0  0  0  0  0  0  0  0
   -3.9827   -0.3361    0.0000 C   0  0  0  0  0  0  0  0  0  0  0  0
   -2.4932   -0.1588    0.0000 C   0  0  0  0  0  0  0  0  0  0  0  0
   -1.5949   -1.3600    0.0000 C   0  0  0  0  0  0  0  0  0  0  0  0
   -0.1054   -1.1827    0.0000 C   0  0  0  0  0  0  0  0  0  0  0  0
    0.9135   -2.2834    0.0000 N   0  0  0  0  0  0  0  0  0  0  0  0
    2.2753   -1.6545    0.0000 C   0  0  0  0  0  0  0  0  0  0  0  0
    3.6539   -2.2457    0.0000 C   0  0  0  0  0  0  0  0  0  0  0  0
    4.8552   -1.3473    0.0000 C   0  0  0  0  0  0  0  0  0  0  0  0
    4.6778    0.1422    0.0000 C   0  0  0  0  0  0  0  0  0  0  0  0
    3.2992    0.7333    0.0000 C   0  0  0  0  0  0  0  0  0  0  0  0
    2.0980   -0.1650    0.0000 C   0  0  0  0  0  0  0  0  0  0  0  0
    0.6266    0.1266    0.0000 C   0  0  0  0  0  0  0  0  0  0  0  0
   -0.0024    1.4884    0.0000 C   0  0  0  0  0  0  0  0  0  0  0  0
    0.8625    2.7139    0.0000 C   0  0  0  0  0  0  0  0  0  0  0  0
    0.2336    4.0757    0.0000 C   0  0  0  0  0  0  0  0  0  0  0  0
   -1.2602    4.2119    0.0000 N   0  0  0  0  0  4  0  0  0  0  0  0
   -2.1251    2.9863    0.0000 C   0  0  0  0  0  0  0  0  0  0  0  0
   -1.4962    1.6246    0.0000 C   0  0  0  0  0  0  0  0  0  0  0  0
   -2.1861   -2.7386    0.0000 C   0  0  0  0  0  0  0  0  0  0  0  0
   -3.6755   -2.9160    0.0000 C   0  0  0  0  0  0  0  0  0  0  0  0
  1  2  2  0
  2  3  1  0
  3  4  2  0
  4  5  1  0
  5  6  1  0
  6  7  1  0
  7  8  2  0
  8  9  1  0
  9 10  2  0
 10 11  1  0
 11 12  2  0
 12 13  1  0
 13 14  1  0
 14 15  1  0
 15 16  1  0
 16 17  1  0
 17 18  1  0
 18 19  1  0
  4 20  1  0
 20 21  2  0
 21  1  1  0
 13  5  2  0
 19 14  1  0
 12  7  1  0
M  CHG  1  17   1
M  END
> <Identifier>
WOMBAT30

> <hERG>
1

$$$$

     RDKit          2D

 27 30  0  0  0  0  0  0  0  0999 V2000
  -10.3560    0.8943    0.0000 O   0  0  0  0  0  0  0  0  0  0  0  0
   -9.3151   -0.1857    0.0000 C   0  0  0  0  0  0  0  0  0  0  0  0
   -7.8593    0.1758    0.0000 C   0  0  0  0  0  0  0  0  0  0  0  0
   -6.8183   -0.9042    0.0000 O   0  0  0  0  0  0  0  0  0  0  0  0
   -5.3625   -0.5427    0.0000 C   0  0  0  0  0  0  0  0  0  0  0  0
   -4.3216   -1.6226    0.0000 C   0  0  0  0  0  0  0  0  0  0  0  0
   -2.8658   -1.2611    0.0000 N   0  0  0  0  0  4  0  0  0  0  0  0
   -2.4510    0.1804    0.0000 C   0  0  0  0  0  0  0  0  0  0  0  0
   -0.9952    0.5419    0.0000 C   0  0  0  0  0  0  0  0  0  0  0  0
    0.0458   -0.5381    0.0000 N   0  0  0  0  0  0  0  0  0  0  0  0
    1.5016   -0.1766    0.0000 C   0  0  0  0  0  0  0  0  0  0  0  0
    2.4589   -1.3314    0.0000 N   0  0  0  0  0  0  0  0  0  0  0  0
    3.9587   -1.3029    0.0000 C   0  0  0  0  0  0  0  0  0  0  0  0
    4.5331   -2.6885    0.0000 C   0  0  0  0  0  0  0  0  0  0  0  0
    6.0203   -2.8839    0.0000 C   0  0  0  0  0  0  0  0  0  0  0  0
    6.9331   -1.6936    0.0000 C   0  0  0  0  0  0  0  0  0  0  0  0
    6.3587   -0.3079    0.0000 C   0  0  0  0  0  0  0  0  0  0  0  0
    4.8714   -0.1126    0.0000 C   0  0  0  0  0  0  0  0  0  0  0  0
    4.5099    1.3432    0.0000 S   0  0  0  0  0  0  0  0  0  0  0  0
    3.1464    1.9682    0.0000 C   0  0  0  0  0  0  0  0  0  0  0  0
    3.2300    3.4659    0.0000 C   0  0  0  0  0  0  0  0  0  0  0  0
    1.9748    4.2872    0.0000 C   0  0  0  0  0  0  0  0  0  0  0  0
    0.6360    3.6108    0.0000 C   0  0  0  0  0  0  0  0  0  0  0  0
    0.5523    2.1131    0.0000 C   0  0  0  0  0  0  0  0  0  0  0  0
    1.8075    1.2918    0.0000 C   0  0  0  0  0  0  0  0  0  0  0  0
   -0.3690   -1.9796    0.0000 C   0  0  0  0  0  0  0  0  0  0  0  0
   -1.8248   -2.3411    0.0000 C   0  0  0  0  0  0  0  0  0  0  0  0
  1  2  1  0
  2  3  1  0
  3  4  1  0
  4  5  1  0
  5  6  1  0
  6  7  1  0
  7  8  1  0
  8  9  1  0
  9 10  1  0
 10 11  1  0
 11 12  2  0
 12 13  1  0
 13 14  2  0
 14 15  1  0
 15 16  2  0
 16 17  1  0
 17 18  2  0
 18 19  1  0
 19 20  1  0
 20 21  2  0
 21 22  1  0
 22 23  2  0
 23 24  1  0
 24 25  2  0
 10 26  1  0
 26 27  1  0
 27  7  1  0
 25 11  1  0
 18 13  1  0
 25 20  1  0
M  CHG  1   7   1
M  END
> <Identifier>
QUETIAPINE

> <hERG>
1

$$$$

     RDKit          2D

 33 34  0  0  0  0  0  0  0  0999 V2000
    5.8037    3.3384    0.0000 C   0  0  0  0  0  0  0  0  0  0  0  0
    6.3395    1.9373    0.0000 C   0  0  0  0  0  0  0  0  0  0  0  0
    5.3940    0.7729    0.0000 C   0  0  0  0  0  0  0  0  0  0  0  0
    3.9127    1.0095    0.0000 C   0  0  0  0  0  0  0  0  0  0  0  0
    2.9672   -0.1550    0.0000 C   0  0  0  0  0  0  0  0  0  0  0  0
    1.4860    0.0816    0.0000 C   0  0  0  0  0  0  0  0  0  0  0  0
    0.9503    1.4826    0.0000 C   0  0  0  0  0  0  0  0  0  0  0  0
    0.5405   -1.0829    0.0000 C   0  0  0  0  0  0  0  0  0  0  0  0
   -0.9407   -0.8463    0.0000 C   0  0  0  0  0  0  0  0  0  0  0  0
   -1.8862   -2.0108    0.0000 C   0  0  0  0  0  0  0  0  0  0  0  0
   -3.3674   -1.7742    0.0000 C   0  0  0  0  0  0  0  0  0  0  0  0
   -4.3130   -2.9387    0.0000 C   0  0  0  0  0  0  0  0  0  0  0  0
   -3.9032   -0.3732    0.0000 C   0  0  0  0  0  0  0  0  0  0  0  0
   -5.3844   -0.1366    0.0000 C   0  0  0  0  0  0  0  0  0  0  0  0
   -5.9201    1.2645    0.0000 C   0  0  0  0  0  0  0  0  0  0  0  0
   -7.4013    1.5011    0.0000 C   0  0  0  0  0  0  0  0  0  0  0  0
   -7.9371    2.9022    0.0000 C   0  0  0  0  0  0  0  0  0  0  0  0
   -8.3468    0.3366    0.0000 C   0  0  0  0  0  0  0  0  0  0  0  0
   -9.8281    0.5732    0.0000 C   0  0  0  0  0  0  0  0  0  0  0  0
  -10.7736   -0.5913    0.0000 C   0  0  0  0  0  0  0  0  0  0  0  0
  -12.2548   -0.3547    0.0000 C   0  0  0  0  0  0  0  0  0  0  0  0
  -13.2003   -1.5192    0.0000 C   0  0  0  0  0  0  0  0  0  0  0  0
  -12.7905    1.0464    0.0000 C   0  0  0  0  0  0  0  0  0  0  0  0
    5.9297   -0.6282    0.0000 C   0  0  0  0  0  0  0  0  0  0  0  0
    4.9842   -1.7927    0.0000 O   0  0  0  0  0  0  0  0  0  0  0  0
    7.4109   -0.8648    0.0000 C   0  0  0  0  0  0  0  0  0  0  0  0
    7.9466   -2.2659    0.0000 C   0  0  0  0  0  0  0  0  0  0  0  0
    9.4279   -2.5025    0.0000 C   0  0  0  0  0  0  0  0  0  0  0  0
   10.3734   -1.3380    0.0000 C   0  0  0  0  0  0  0  0  0  0  0  0
    9.8376    0.0631    0.0000 C   0  0  0  0  0  0  0  0  0  0  0  0
    8.3564    0.2997    0.0000 C   0  0  0  0  0  0  0  0  0  0  0  0
    7.8207    1.7008    0.0000 C   0  0  0  0  0  0  0  0  0  0  0  0
    8.7662    2.8652    0.0000 O   0  0  0  0  0  0  0  0  0  0  0  0
  1  2  1  0
  2  3  2  0
  3  4  1  0
  4  5  1  0
  5  6  2  0
  6  7  1  0
  6  8  1  0
  8  9  1  0
  9 10  1  0
 10 11  1  0
 11 12  1  6
 11 13  1  0
 13 14  1  0
 14 15  1  0
 15 16  1  0
 16 17  1  1
 16 18  1  0
 18 19  1  0
 19 20  1  0
 20 21  1  0
 21 22  1  0
 21 23  1  0
  3 24  1  0
 24 25  2  0
 24 26  1  0
 26 27  2  0
 27 28  1  0
 28 29  2  0
 29 30  1  0
 30 31  2  0
 31 32  1  0
 32 33  2  0
 32  2  1  0
 31 26  1  0
M  END
> <Identifier>
VITAMINE_K

> <hERG>
1

$$$$

     RDKit          2D

 31 34  0  0  0  0  0  0  0  0999 V2000
    1.8631   -3.8052    0.0000 N   0  0  0  0  0  0  0  0  0  0  0  0
    0.4546   -3.2892    0.0000 C   0  0  0  0  0  0  0  0  0  0  0  0
   -0.9538   -2.7732    0.0000 C   0  0  0  0  0  0  0  0  0  0  0  0
   -2.1049   -3.7349    0.0000 C   0  0  0  0  0  0  0  0  0  0  0  0
   -3.5134   -3.2189    0.0000 C   0  0  0  0  0  0  0  0  0  0  0  0
   -3.7707   -1.7412    0.0000 C   0  0  0  0  0  0  0  0  0  0  0  0
   -5.1792   -1.2252    0.0000 C   0  0  0  0  0  0  0  0  0  0  0  0
   -5.4365    0.2526    0.0000 N   0  0  0  0  0  0  0  0  0  0  0  0
   -6.7834    0.9130    0.0000 C   0  0  0  0  0  0  0  0  0  0  0  0
   -6.5715    2.3980    0.0000 N   0  0  0  0  0  0  0  0  0  0  0  0
   -5.0937    2.6553    0.0000 C   0  0  0  0  0  0  0  0  0  0  0  0
   -4.3923    1.3294    0.0000 C   0  0  0  0  0  0  0  0  0  0  0  0
   -2.9073    1.1175    0.0000 C   0  0  0  0  0  0  0  0  0  0  0  0
   -1.9814    2.2976    0.0000 N   0  0  0  0  0  4  0  0  0  0  0  0
   -0.4964    2.0857    0.0000 C   0  0  0  0  0  0  0  0  0  0  0  0
    0.5479    3.1625    0.0000 C   0  0  0  0  0  0  0  0  0  0  0  0
    1.8947    2.5021    0.0000 C   0  0  0  0  0  0  0  0  0  0  0  0
    1.6828    1.0172    0.0000 N   0  0  0  0  0  0  0  0  0  0  0  0
    2.7596   -0.0271    0.0000 C   0  0  0  0  0  0  0  0  0  0  0  0
    2.3936   -1.4818    0.0000 O   0  0  0  0  0  0  0  0  0  0  0  0
    4.2024    0.3833    0.0000 C   0  0  0  0  0  0  0  0  0  0  0  0
    4.5683    1.8380    0.0000 C   0  0  0  0  0  0  0  0  0  0  0  0
    6.0111    2.2484    0.0000 C   0  0  0  0  0  0  0  0  0  0  0  0
    7.0879    1.2041    0.0000 C   0  0  0  0  0  0  0  0  0  0  0  0
    6.7219   -0.2505    0.0000 C   0  0  0  0  0  0  0  0  0  0  0  0
    7.7987   -1.2948    0.0000 Cl  0  0  0  0  0  0  0  0  0  0  0  0
    5.2792   -0.6609    0.0000 C   0  0  0  0  0  0  0  0  0  0  0  0
    0.2050    0.7598    0.0000 C   0  0  0  0  0  0  0  0  0  0  0  0
   -0.4554   -0.5870    0.0000 O   0  0  0  0  0  0  0  0  0  0  0  0
   -2.6196   -0.7794    0.0000 C   0  0  0  0  0  0  0  0  0  0  0  0
   -1.2112   -1.2954    0.0000 C   0  0  0  0  0  0  0  0  0  0  0  0
  1  2  3  0
  2  3  1  0
  3  4  2  0
  4  5  1  0
  5  6  2  0
  6  7  1  0
  7  8  1  0
  8  9  1  0
  9 10  2  0
 10 11  1  0
 11 12  2  0
 12 13  1  0
 13 14  1  0
 15 14  1  6
 15 16  1  0
 16 17  1  0
 17 18  1  0
 18 19  1  0
 19 20  2  0
 19 21  1  0
 21 22  2  0
 22 23  1  0
 23 24  2  0
 24 25  1  0
 25 26  1  0
 25 27  2  0
 18 28  1  0
 28 29  2  0
  6 30  1  0
 30 31  2  0
 31  3  1  0
 12  8  1  0
 28 15  1  0
 27 21  1  0
M  CHG  1  14   1
M  END
> <Identifier>
WOMBAT62

> <hERG>
1

$$$$

     RDKit          2D

 24 28  0  0  0  0  0  0  0  0999 V2000
   -1.3981    1.4103    0.0000 O   0  0  0  0  0  0  0  0  0  0  0  0
   -1.5983   -0.0763    0.0000 C   0  0  0  0  0  0  0  0  0  0  0  0
   -0.4110   -0.9930    0.0000 O   0  0  0  0  0  0  0  0  0  0  0  0
    0.9765   -0.4232    0.0000 C   0  0  0  0  0  0  0  0  0  0  0  0
    2.1638   -1.3399    0.0000 C   0  0  0  0  0  0  0  0  0  0  0  0
    3.5513   -0.7700    0.0000 C   0  0  0  0  0  0  0  0  0  0  0  0
    4.7386   -1.6867    0.0000 C   0  0  0  0  0  0  0  0  0  0  0  0
    6.1261   -1.1169    0.0000 C   0  0  0  0  0  0  0  0  0  0  0  0
    4.3911    0.0750    0.0000 C   0  0  0  0  0  0  0  0  0  0  0  0
    2.5643    1.6333    0.0000 C   0  0  0  0  0  0  0  0  0  0  0  0
    1.1767    1.0634    0.0000 C   0  0  0  0  0  0  0  0  0  0  0  0
    3.7516    0.7166    0.0000 N   0  0  0  0  0  4  0  0  0  0  0  0
    5.1391    1.2864    0.0000 C   0  0  0  0  0  0  0  0  0  0  0  0
    6.3264    0.3697    0.0000 C   0  0  0  0  0  0  0  0  0  0  0  0
    7.7139    0.9396    0.0000 O   0  0  0  0  0  0  0  0  0  0  0  0
   -2.9859   -0.6462    0.0000 C   0  0  0  0  0  0  0  0  0  0  0  0
   -4.2625    0.1414    0.0000 C   0  0  0  0  0  0  0  0  0  0  0  0
   -4.5314    1.6171    0.0000 C   0  0  0  0  0  0  0  0  0  0  0  0
   -5.9438    2.1221    0.0000 C   0  0  0  0  0  0  0  0  0  0  0  0
   -7.0874    1.1513    0.0000 C   0  0  0  0  0  0  0  0  0  0  0  0
   -6.8184   -0.3244    0.0000 C   0  0  0  0  0  0  0  0  0  0  0  0
   -5.4060   -0.8293    0.0000 C   0  0  0  0  0  0  0  0  0  0  0  0
   -4.8361   -2.2168    0.0000 N   0  0  0  0  0  0  0  0  0  0  0  0
   -3.3404   -2.1037    0.0000 C   0  0  0  0  0  0  0  0  0  0  0  0
  1  2  2  0
  2  3  1  0
  3  4  1  0
  4  5  1  0
  6  5  1  6
  6  7  1  0
  7  8  1  0
  8  9  1  0
  9 10  1  0
 10 11  1  6
 10 12  1  0
 12 13  1  0
 13 14  1  0
 14 15  2  0
  2 16  1  0
 16 17  2  0
 17 18  1  0
 18 19  2  0
 19 20  1  0
 20 21  2  0
 21 22  1  0
 22 23  2  0
 23 24  1  0
 11  4  1  0
 24 16  1  0
 12  6  1  0
 22 17  1  0
 14  8  1  0
M  CHG  1  12   1
M  END
> <Identifier>
DOLASETRON

> <hERG>
1

$$$$

     RDKit          2D

 33 36  0  0  0  0  0  0  0  0999 V2000
   -0.5461   -2.9837    0.0000 O   0  0  0  0  0  0  0  0  0  0  0  0
   -1.2759   -1.6732    0.0000 C   0  0  0  0  0  0  0  0  0  0  0  0
   -0.5060   -0.3859    0.0000 O   0  0  0  0  0  0  0  0  0  0  0  0
    0.9938   -0.4090    0.0000 C   0  0  0  0  0  0  0  0  0  0  0  0
    1.7237   -1.7195    0.0000 C   0  0  0  0  0  0  0  0  0  0  0  0
    3.2235   -1.7426    0.0000 C   0  0  0  0  0  0  0  0  0  0  0  0
    3.9534   -3.0530    0.0000 C   0  0  0  0  0  0  0  0  0  0  0  0
    3.1835   -4.3403    0.0000 O   0  0  0  0  0  0  0  0  0  0  0  0
    5.4532   -3.0761    0.0000 C   0  0  0  0  0  0  0  0  0  0  0  0
    6.2232   -1.7888    0.0000 C   0  0  0  0  0  0  0  0  0  0  0  0
    7.7230   -1.8119    0.0000 O   0  0  0  0  0  0  0  0  0  0  0  0
    5.4933   -0.4784    0.0000 C   0  0  0  0  0  0  0  0  0  0  0  0
    3.9935   -0.4553    0.0000 C   0  0  0  0  0  0  0  0  0  0  0  0
    3.2636    0.8552    0.0000 O   0  0  0  0  0  0  0  0  0  0  0  0
    1.7637    0.8783    0.0000 C   0  0  0  0  0  0  0  0  0  0  0  0
    1.0339    2.1888    0.0000 C   0  0  0  0  0  0  0  0  0  0  0  0
    1.8038    3.4761    0.0000 C   0  0  0  0  0  0  0  0  0  0  0  0
    1.0739    4.7865    0.0000 C   0  0  0  0  0  0  0  0  0  0  0  0
    1.8438    6.0738    0.0000 O   0  0  0  0  0  0  0  0  0  0  0  0
   -0.4259    4.8096    0.0000 C   0  0  0  0  0  0  0  0  0  0  0  0
   -1.1558    6.1201    0.0000 O   0  0  0  0  0  0  0  0  0  0  0  0
   -1.1958    3.5223    0.0000 C   0  0  0  0  0  0  0  0  0  0  0  0
   -2.6957    3.5454    0.0000 O   0  0  0  0  0  0  0  0  0  0  0  0
   -0.4660    2.2119    0.0000 C   0  0  0  0  0  0  0  0  0  0  0  0
   -2.7758   -1.6501    0.0000 C   0  0  0  0  0  0  0  0  0  0  0  0
   -3.5457   -2.9374    0.0000 C   0  0  0  0  0  0  0  0  0  0  0  0
   -5.0455   -2.9143    0.0000 C   0  0  0  0  0  0  0  0  0  0  0  0
   -5.8155   -4.2016    0.0000 O   0  0  0  0  0  0  0  0  0  0  0  0
   -5.7754   -1.6039    0.0000 C   0  0  0  0  0  0  0  0  0  0  0  0
   -7.2752   -1.5807    0.0000 O   0  0  0  0  0  0  0  0  0  0  0  0
   -5.0055   -0.3165    0.0000 C   0  0  0  0  0  0  0  0  0  0  0  0
   -5.7354    0.9939    0.0000 O   0  0  0  0  0  0  0  0  0  0  0  0
   -3.5057   -0.3397    0.0000 C   0  0  0  0  0  0  0  0  0  0  0  0
  1  2  2  0
  2  3  1  0
  4  3  1  1
  4  5  1  0
  5  6  1  0
  6  7  2  0
  7  8  1  0
  7  9  1  0
  9 10  2  0
 10 11  1  0
 10 12  1  0
 12 13  2  0
 13 14  1  0
 14 15  1  0
 15 16  1  1
 16 17  2  0
 17 18  1  0
 18 19  1  0
 18 20  2  0
 20 21  1  0
 20 22  1  0
 22 23  1  0
 22 24  2  0
  2 25  1  0
 25 26  2  0
 26 27  1  0
 27 28  1  0
 27 29  2  0
 29 30  1  0
 29 31  1  0
 31 32  1  0
 31 33  2  0
 15  4  1  0
 24 16  1  0
 33 25  1  0
 13  6  1  0
M  END
> <Identifier>
EGCG

> <hERG>
1

$$$$

     RDKit          2D

 31 34  0  0  0  0  0  0  0  0999 V2000
    1.8631   -3.8052    0.0000 N   0  0  0  0  0  0  0  0  0  0  0  0
    0.4546   -3.2892    0.0000 C   0  0  0  0  0  0  0  0  0  0  0  0
   -0.9538   -2.7732    0.0000 C   0  0  0  0  0  0  0  0  0  0  0  0
   -2.1049   -3.7349    0.0000 C   0  0  0  0  0  0  0  0  0  0  0  0
   -3.5134   -3.2189    0.0000 C   0  0  0  0  0  0  0  0  0  0  0  0
   -3.7707   -1.7412    0.0000 C   0  0  0  0  0  0  0  0  0  0  0  0
   -5.1792   -1.2252    0.0000 C   0  0  0  0  0  0  0  0  0  0  0  0
   -5.4365    0.2526    0.0000 N   0  0  0  0  0  0  0  0  0  0  0  0
   -6.7834    0.9130    0.0000 C   0  0  0  0  0  0  0  0  0  0  0  0
   -6.5715    2.3980    0.0000 N   0  0  0  0  0  0  0  0  0  0  0  0
   -5.0937    2.6553    0.0000 C   0  0  0  0  0  0  0  0  0  0  0  0
   -4.3923    1.3294    0.0000 C   0  0  0  0  0  0  0  0  0  0  0  0
   -2.9073    1.1175    0.0000 C   0  0  0  0  0  0  0  0  0  0  0  0
   -1.9814    2.2976    0.0000 N   0  0  0  0  0  4  0  0  0  0  0  0
   -0.4964    2.0857    0.0000 C   0  0  0  0  0  0  0  0  0  0  0  0
    0.5479    3.1625    0.0000 C   0  0  0  0  0  0  0  0  0  0  0  0
    1.8947    2.5021    0.0000 C   0  0  0  0  0  0  0  0  0  0  0  0
    1.6828    1.0172    0.0000 N   0  0  0  0  0  0  0  0  0  0  0  0
    2.7596   -0.0271    0.0000 C   0  0  0  0  0  0  0  0  0  0  0  0
    2.3936   -1.4818    0.0000 O   0  0  0  0  0  0  0  0  0  0  0  0
    4.2024    0.3833    0.0000 C   0  0  0  0  0  0  0  0  0  0  0  0
    4.5683    1.8380    0.0000 C   0  0  0  0  0  0  0  0  0  0  0  0
    6.0111    2.2484    0.0000 N   0  0  0  0  0  0  0  0  0  0  0  0
    7.0879    1.2041    0.0000 C   0  0  0  0  0  0  0  0  0  0  0  0
    6.7219   -0.2505    0.0000 C   0  0  0  0  0  0  0  0  0  0  0  0
    7.7987   -1.2948    0.0000 Br  0  0  0  0  0  0  0  0  0  0  0  0
    5.2792   -0.6609    0.0000 C   0  0  0  0  0  0  0  0  0  0  0  0
    0.2050    0.7598    0.0000 C   0  0  0  0  0  0  0  0  0  0  0  0
   -0.4554   -0.5870    0.0000 O   0  0  0  0  0  0  0  0  0  0  0  0
   -2.6196   -0.7794    0.0000 C   0  0  0  0  0  0  0  0  0  0  0  0
   -1.2112   -1.2954    0.0000 C   0  0  0  0  0  0  0  0  0  0  0  0
  1  2  3  0
  2  3  1  0
  3  4  2  0
  4  5  1  0
  5  6  2  0
  6  7  1  0
  7  8  1  0
  8  9  1  0
  9 10  2  0
 10 11  1  0
 11 12  2  0
 12 13  1  0
 13 14  1  0
 15 14  1  6
 15 16  1  0
 16 17  1  0
 17 18  1  0
 18 19  1  0
 19 20  2  0
 19 21  1  0
 21 22  2  0
 22 23  1  0
 23 24  2  0
 24 25  1  0
 25 26  1  0
 25 27  2  0
 18 28  1  0
 28 29  2  0
  6 30  1  0
 30 31  2  0
 31  3  1  0
 12  8  1  0
 28 15  1  0
 27 21  1  0
M  CHG  1  14   1
M  END
> <Identifier>
WOMBAT66

> <hERG>
1

$$$$

     RDKit          2D

 32 36  0  0  0  0  0  0  0  0999 V2000
    1.5666   -2.8209    0.0000 O   0  0  0  0  0  0  0  0  0  0  0  0
    1.9987   -1.3845    0.0000 C   0  0  0  0  0  0  0  0  0  0  0  0
    0.9708   -0.2921    0.0000 N   0  0  0  0  0  0  0  0  0  0  0  0
   -0.4892   -0.6360    0.0000 C   0  0  0  0  0  0  0  0  0  0  0  0
   -1.5171    0.4564    0.0000 C   0  0  0  0  0  0  0  0  0  0  0  0
   -2.9772    0.1124    0.0000 C   0  0  0  0  0  0  0  0  0  0  0  0
   -3.4093   -1.3240    0.0000 N   0  0  0  0  0  0  0  0  0  0  0  0
   -4.8693   -1.6679    0.0000 C   0  0  0  0  0  0  0  0  0  0  0  0
   -5.8972   -0.5755    0.0000 C   0  0  0  0  0  0  0  0  0  0  0  0
   -5.4651    0.8609    0.0000 C   0  0  0  0  0  0  0  0  0  0  0  0
   -6.4930    1.9533    0.0000 C   0  0  0  0  0  0  0  0  0  0  0  0
   -7.9530    1.6094    0.0000 C   0  0  0  0  0  0  0  0  0  0  0  0
   -8.3851    0.1730    0.0000 C   0  0  0  0  0  0  0  0  0  0  0  0
   -7.3572   -0.9195    0.0000 C   0  0  0  0  0  0  0  0  0  0  0  0
   -9.8848    0.1401    0.0000 O   0  0  0  0  0  0  0  0  0  0  0  0
  -10.3795    1.5561    0.0000 C   0  0  0  0  0  0  0  0  0  0  0  0
   -9.1856    2.4642    0.0000 O   0  0  0  0  0  0  0  0  0  0  0  0
   -2.3814   -2.4164    0.0000 C   0  0  0  0  0  0  0  0  0  0  0  0
   -0.9213   -2.0724    0.0000 C   0  0  0  0  0  0  0  0  0  0  0  0
    3.4587   -1.0405    0.0000 C   0  0  0  0  0  0  0  0  0  0  0  0
    4.4866   -2.1330    0.0000 C   0  0  0  0  0  0  0  0  0  0  0  0
    5.9467   -1.7890    0.0000 C   0  0  0  0  0  0  0  0  0  0  0  0
    6.9746   -2.8814    0.0000 O   0  0  0  0  0  0  0  0  0  0  0  0
    6.3788   -0.3526    0.0000 C   0  0  0  0  0  0  0  0  0  0  0  0
    7.8388   -0.0086    0.0000 C   0  0  0  0  0  0  0  0  0  0  0  0
    8.2710    1.4278    0.0000 C   0  0  0  0  0  0  0  0  0  0  0  0
    9.7310    1.7718    0.0000 Cl  0  0  0  0  0  0  0  0  0  0  0  0
    7.2430    2.5202    0.0000 C   0  0  0  0  0  0  0  0  0  0  0  0
    7.6752    3.9566    0.0000 Cl  0  0  0  0  0  0  0  0  0  0  0  0
    5.7830    2.1763    0.0000 C   0  0  0  0  0  0  0  0  0  0  0  0
    5.3509    0.7399    0.0000 C   0  0  0  0  0  0  0  0  0  0  0  0
    3.8909    0.3959    0.0000 O   0  0  0  0  0  0  0  0  0  0  0  0
  1  2  2  0
  2  3  1  0
  3  4  1  0
  4  5  1  0
  5  6  1  0
  6  7  1  0
  7  8  1  0
  8  9  1  0
  9 10  2  0
 10 11  1  0
 11 12  2  0
 12 13  1  0
 13 14  2  0
 13 15  1  0
 15 16  1  0
 16 17  1  0
  7 18  1  0
 18 19  1  0
  2 20  1  0
 20 21  2  0
 21 22  1  0
 22 23  2  0
 22 24  1  0
 24 25  2  0
 25 26  1  0
 26 27  1  0
 26 28  2  0
 28 29  1  0
 28 30  1  0
 30 31  2  0
 31 32  1  0
 19  4  1  0
 32 20  1  0
 14  9  1  0
 31 24  1  0
 17 12  1  0
M  END
> <Identifier>
JMC20066569-36

> <hERG>
1

$$$$

     RDKit          2D

 31 35  0  0  0  0  0  0  0  0999 V2000
    8.1951    4.0045    0.0000 F   0  0  0  0  0  0  0  0  0  0  0  0
    7.0032    3.0938    0.0000 C   0  0  0  0  0  0  0  0  0  0  0  0
    7.1959    1.6063    0.0000 C   0  0  0  0  0  0  0  0  0  0  0  0
    6.0039    0.6956    0.0000 C   0  0  0  0  0  0  0  0  0  0  0  0
    4.6193    1.2725    0.0000 C   0  0  0  0  0  0  0  0  0  0  0  0
    3.4274    0.3618    0.0000 N   0  0  0  0  0  0  0  0  0  0  0  0
    1.9901    0.7908    0.0000 C   0  0  0  0  0  0  0  0  0  0  0  0
    1.1379   -0.4436    0.0000 C   0  0  0  0  0  0  0  0  0  0  0  0
   -0.3617   -0.4798    0.0000 C   0  0  0  0  0  0  0  0  0  0  0  0
   -1.1428    0.8008    0.0000 C   0  0  0  0  0  0  0  0  0  0  0  0
   -2.6423    0.7646    0.0000 C   0  0  0  0  0  0  0  0  0  0  0  0
   -3.3608   -0.5521    0.0000 N   0  0  0  0  0  4  0  0  0  0  0  0
   -4.8604   -0.5883    0.0000 C   0  0  0  0  0  0  0  0  0  0  0  0
   -5.6415    0.6923    0.0000 C   0  0  0  0  0  0  0  0  0  0  0  0
   -7.1410    0.6562    0.0000 N   0  0  0  0  0  0  0  0  0  0  0  0
   -7.9932   -0.5783    0.0000 C   0  0  0  0  0  0  0  0  0  0  0  0
   -9.4305   -0.1493    0.0000 C   0  0  0  0  0  0  0  0  0  0  0  0
   -9.4667    1.3503    0.0000 N   0  0  0  0  0  0  0  0  0  0  0  0
   -8.0517    1.8481    0.0000 C   0  0  0  0  0  0  0  0  0  0  0  0
   -7.6227    3.2854    0.0000 S   0  0  0  0  0  0  0  0  0  0  0  0
   -2.5797   -1.8327    0.0000 C   0  0  0  0  0  0  0  0  0  0  0  0
   -1.0801   -1.7965    0.0000 C   0  0  0  0  0  0  0  0  0  0  0  0
    2.0486   -1.6355    0.0000 C   0  0  0  0  0  0  0  0  0  0  0  0
    1.7722   -3.1099    0.0000 C   0  0  0  0  0  0  0  0  0  0  0  0
    2.9107   -4.0864    0.0000 C   0  0  0  0  0  0  0  0  0  0  0  0
    2.6343   -5.5607    0.0000 Cl  0  0  0  0  0  0  0  0  0  0  0  0
    4.3257   -3.5886    0.0000 C   0  0  0  0  0  0  0  0  0  0  0  0
    4.6021   -2.1143    0.0000 C   0  0  0  0  0  0  0  0  0  0  0  0
    3.4636   -1.1378    0.0000 C   0  0  0  0  0  0  0  0  0  0  0  0
    4.4266    2.7600    0.0000 C   0  0  0  0  0  0  0  0  0  0  0  0
    5.6185    3.6707    0.0000 C   0  0  0  0  0  0  0  0  0  0  0  0
  1  2  1  0
  2  3  2  0
  3  4  1  0
  4  5  2  0
  5  6  1  0
  6  7  1  0
  7  8  2  0
  8  9  1  0
  9 10  1  0
 10 11  1  0
 11 12  1  0
 12 13  1  0
 13 14  1  0
 14 15  1  0
 15 16  1  0
 16 17  1  0
 17 18  1  0
 18 19  1  0
 19 20  2  0
 12 21  1  0
 21 22  1  0
  8 23  1  0
 23 24  2  0
 24 25  1  0
 25 26  1  0
 25 27  2  0
 27 28  1  0
 28 29  2  0
  5 30  1  0
 30 31  2  0
 31  2  1  0
 29  6  1  0
 22  9  1  0
 29 23  1  0
 19 15  1  0
M  CHG  1  12   1
M  END
> <Identifier>
SERTINDOLE10

> <hERG>
1

$$$$

     RDKit          2D

 19 20  0  0  0  0  0  0  0  0999 V2000
   -5.9842    1.1341    0.0000 C   0  0  0  0  0  0  0  0  0  0  0  0
   -4.6625    1.8433    0.0000 N   0  0  0  0  0  0  0  0  0  0  0  0
   -3.3874    1.0532    0.0000 C   0  0  0  0  0  0  0  0  0  0  0  0
   -2.0657    1.7625    0.0000 C   0  0  0  0  0  0  0  0  0  0  0  0
   -0.7906    0.9724    0.0000 C   0  0  0  0  0  0  0  0  0  0  0  0
    0.5312    1.6817    0.0000 O   0  0  0  0  0  0  0  0  0  0  0  0
    1.8062    0.8916    0.0000 C   0  0  0  0  0  0  0  0  0  0  0  0
    1.7596   -0.6077    0.0000 C   0  0  0  0  0  0  0  0  0  0  0  0
    3.0347   -1.3977    0.0000 C   0  0  0  0  0  0  0  0  0  0  0  0
    4.3564   -0.6885    0.0000 C   0  0  0  0  0  0  0  0  0  0  0  0
    4.4031    0.8108    0.0000 C   0  0  0  0  0  0  0  0  0  0  0  0
    3.1280    1.6008    0.0000 C   0  0  0  0  0  0  0  0  0  0  0  0
    3.1746    3.1001    0.0000 C   0  0  0  0  0  0  0  0  0  0  0  0
   -0.8372   -0.5268    0.0000 C   0  0  0  0  0  0  0  0  0  0  0  0
   -2.1590   -1.2361    0.0000 C   0  0  0  0  0  0  0  0  0  0  0  0
   -2.2056   -2.7353    0.0000 C   0  0  0  0  0  0  0  0  0  0  0  0
   -0.9306   -3.5254    0.0000 C   0  0  0  0  0  0  0  0  0  0  0  0
    0.3912   -2.8162    0.0000 C   0  0  0  0  0  0  0  0  0  0  0  0
    0.4378   -1.3169    0.0000 C   0  0  0  0  0  0  0  0  0  0  0  0
  1  2  1  0
  2  3  1  0
  3  4  1  0
  5  4  1  1
  5  6  1  0
  6  7  1  0
  7  8  2  0
  8  9  1  0
  9 10  2  0
 10 11  1  0
 11 12  2  0
 12 13  1  0
  5 14  1  0
 14 15  2  0
 15 16  1  0
 16 17  2  0
 17 18  1  0
 18 19  2  0
 12  7  1  0
 19 14  1  0
M  END
> <Identifier>
ATOMOXETINE

> <hERG>
1

$$$$

     RDKit          2D

 21 23  0  0  0  0  0  0  0  0999 V2000
   -5.7199   -2.5061    0.0000 C   0  0  0  0  0  0  0  0  0  0  0  0
   -4.6183   -1.4881    0.0000 N   0  0  0  0  0  4  0  0  0  0  0  0
   -4.9490   -0.0251    0.0000 C   0  0  0  0  0  0  0  0  0  0  0  0
   -3.1858   -1.9332    0.0000 C   0  0  0  0  0  0  0  0  0  0  0  0
   -2.0841   -0.9152    0.0000 C   0  0  0  0  0  0  0  0  0  0  0  0
   -0.6517   -1.3602    0.0000 C   0  0  0  0  0  0  0  0  0  0  0  0
    0.4500   -0.3422    0.0000 C   0  0  0  0  0  0  0  0  0  0  0  0
    1.8452   -0.8931    0.0000 C   0  0  0  0  0  0  0  0  0  0  0  0
    1.8421   -2.3931    0.0000 C   0  0  0  0  0  0  0  0  0  0  0  0
    3.1396   -3.1457    0.0000 C   0  0  0  0  0  0  0  0  0  0  0  0
    4.4402   -2.3984    0.0000 C   0  0  0  0  0  0  0  0  0  0  0  0
    4.4432   -0.8984    0.0000 C   0  0  0  0  0  0  0  0  0  0  0  0
    3.1457   -0.1457    0.0000 C   0  0  0  0  0  0  0  0  0  0  0  0
    3.3723    1.3370    0.0000 C   0  0  0  0  0  0  0  0  0  0  0  0
    2.3543    2.4387    0.0000 O   0  0  0  0  0  0  0  0  0  0  0  0
    0.8583    2.3297    0.0000 C   0  0  0  0  0  0  0  0  0  0  0  0
    0.2102    3.6824    0.0000 C   0  0  0  0  0  0  0  0  0  0  0  0
   -1.2854    3.7976    0.0000 C   0  0  0  0  0  0  0  0  0  0  0  0
   -2.1329    2.5600    0.0000 C   0  0  0  0  0  0  0  0  0  0  0  0
   -1.4848    1.2072    0.0000 C   0  0  0  0  0  0  0  0  0  0  0  0
    0.0108    1.0920    0.0000 C   0  0  0  0  0  0  0  0  0  0  0  0
  1  2  1  0
  2  3  1  0
  2  4  1  0
  4  5  1  0
  5  6  1  0
  6  7  2  0
  7  8  1  0
  8  9  2  0
  9 10  1  0
 10 11  2  0
 11 12  1  0
 12 13  2  0
 13 14  1  0
 14 15  1  0
 15 16  1  0
 16 17  2  0
 17 18  1  0
 18 19  2  0
 19 20  1  0
 20 21  2  0
 21  7  1  0
 13  8  1  0
 21 16  1  0
M  CHG  1   2   1
M  END
> <Identifier>
DOXEPINE

> <hERG>
1

$$$$

     RDKit          2D

 30 33  0  0  0  0  0  0  0  0999 V2000
   -1.0841    4.7557    0.0000 C   0  0  0  0  0  0  0  0  0  0  0  0
   -0.5070    3.3712    0.0000 N   0  0  0  0  0  0  0  0  0  0  0  0
   -1.4174    2.1791    0.0000 C   0  0  0  0  0  0  0  0  0  0  0  0
   -2.9050    2.3715    0.0000 O   0  0  0  0  0  0  0  0  0  0  0  0
   -0.8402    0.7946    0.0000 N   0  0  0  0  0  0  0  0  0  0  0  0
    0.6192    0.4478    0.0000 C   0  0  0  0  0  0  0  0  0  0  0  0
    0.7403   -1.0473    0.0000 C   0  0  0  0  0  0  0  0  0  0  0  0
    2.0210   -1.8281    0.0000 C   0  0  0  0  0  0  0  0  0  0  0  0
    1.9852   -3.3277    0.0000 C   0  0  0  0  0  0  0  0  0  0  0  0
    3.2659   -4.1085    0.0000 C   0  0  0  0  0  0  0  0  0  0  0  0
    3.2301   -5.6081    0.0000 F   0  0  0  0  0  0  0  0  0  0  0  0
    4.5825   -3.3898    0.0000 C   0  0  0  0  0  0  0  0  0  0  0  0
    4.6183   -1.8902    0.0000 C   0  0  0  0  0  0  0  0  0  0  0  0
    3.3376   -1.1094    0.0000 C   0  0  0  0  0  0  0  0  0  0  0  0
    3.3734    0.3902    0.0000 F   0  0  0  0  0  0  0  0  0  0  0  0
   -0.6443   -1.6245    0.0000 C   0  0  0  0  0  0  0  0  0  0  0  0
   -1.6210   -0.4861    0.0000 C   0  0  0  0  0  0  0  0  0  0  0  0
   -3.1161   -0.6072    0.0000 C   0  0  0  0  0  0  0  0  0  0  0  0
   -3.9686    0.6270    0.0000 C   0  0  0  0  0  0  0  0  0  0  0  0
   -5.4637    0.5059    0.0000 C   0  0  0  0  0  0  0  0  0  0  0  0
   -6.1063   -0.8494    0.0000 C   0  0  0  0  0  0  0  0  0  0  0  0
   -5.2539   -2.0837    0.0000 C   0  0  0  0  0  0  0  0  0  0  0  0
   -5.8966   -3.4390    0.0000 O   0  0  0  0  0  0  0  0  0  0  0  0
   -3.7588   -1.9626    0.0000 C   0  0  0  0  0  0  0  0  0  0  0  0
    0.9807    3.1788    0.0000 C   0  0  0  0  0  0  0  0  0  0  0  0
    1.5578    1.7943    0.0000 C   0  0  0  0  0  0  0  0  0  0  0  0
    3.0454    1.6019    0.0000 C   0  0  0  0  0  0  0  0  0  0  0  0
    3.9559    2.7941    0.0000 N   0  0  0  0  0  0  0  0  0  0  0  0
    3.3787    4.1786    0.0000 C   0  0  0  0  0  0  0  0  0  0  0  0
    1.8911    4.3710    0.0000 C   0  0  0  0  0  0  0  0  0  0  0  0
  1  2  1  0
  2  3  1  0
  3  4  2  0
  3  5  1  0
  5  6  1  0
  6  7  1  0
  7  8  1  0
  8  9  2  0
  9 10  1  0
 10 11  1  0
 10 12  2  0
 12 13  1  0
 13 14  2  0
 14 15  1  0
  7 16  2  0
 16 17  1  0
 17 18  1  1
 18 19  2  0
 19 20  1  0
 20 21  2  0
 21 22  1  0
 22 23  1  0
 22 24  2  0
  2 25  1  0
 25 26  1  0
 26 27  1  0
 27 28  1  0
 28 29  1  0
 29 30  1  0
 17  5  1  0
 24 18  1  0
 30 25  1  0
 14  8  1  0
M  END
> <Identifier>
BMCL-16-2006-17782-21

> <hERG>
1

$$$$

     RDKit          2D

 22 23  0  0  0  0  0  0  0  0999 V2000
   -5.1862   -2.3514    0.0000 C   0  0  0  0  0  0  0  0  0  0  0  0
   -5.1556   -0.8517    0.0000 C   0  0  0  0  0  0  0  0  0  0  0  0
   -3.8415   -0.1284    0.0000 S   0  0  0  0  0  0  0  0  0  0  0  0
   -3.1182   -1.4424    0.0000 O   0  0  0  0  0  0  0  0  0  0  0  0
   -4.5648    1.1857    0.0000 O   0  0  0  0  0  0  0  0  0  0  0  0
   -2.5274    0.5950    0.0000 C   0  0  0  0  0  0  0  0  0  0  0  0
   -1.2440   -0.1814    0.0000 N   0  0  0  0  0  4  0  0  0  0  0  0
    0.0701    0.5419    0.0000 C   0  0  0  0  0  0  0  0  0  0  0  0
    1.3536   -0.2344    0.0000 C   0  0  0  0  0  0  0  0  0  0  0  0
    1.3230   -1.7341    0.0000 C   0  0  0  0  0  0  0  0  0  0  0  0
    2.6064   -2.5105    0.0000 C   0  0  0  0  0  0  0  0  0  0  0  0
    2.5758   -4.0101    0.0000 C   0  0  0  0  0  0  0  0  0  0  0  0
    1.2617   -4.7335    0.0000 N   0  0  0  0  0  4  0  0  0  0  0  0
    3.9205   -1.7871    0.0000 C   0  0  0  0  0  0  0  0  0  0  0  0
    3.9511   -0.2874    0.0000 C   0  0  0  0  0  0  0  0  0  0  0  0
    2.6677    0.4889    0.0000 C   0  0  0  0  0  0  0  0  0  0  0  0
    2.6983    1.9886    0.0000 O   0  0  0  0  0  0  0  0  0  0  0  0
    1.4148    2.7650    0.0000 C   0  0  0  0  0  0  0  0  0  0  0  0
    2.4022    3.8941    0.0000 C   0  0  0  0  0  0  0  0  0  0  0  0
    0.4743    3.9335    0.0000 C   0  0  0  0  0  0  0  0  0  0  0  0
    0.1007    2.0416    0.0000 C   0  0  0  0  0  0  0  0  0  0  0  0
   -1.1827    2.8180    0.0000 O   0  0  0  0  0  0  0  0  0  0  0  0
  1  2  1  0
  2  3  1  0
  3  4  2  0
  3  5  2  0
  3  6  1  0
  6  7  1  0
  8  7  1  1
  8  9  1  0
  9 10  2  0
 10 11  1  0
 11 12  1  0
 12 13  1  0
 11 14  2  0
 14 15  1  0
 15 16  2  0
 16 17  1  0
 17 18  1  0
 18 19  1  0
 18 20  1  0
 18 21  1  0
 21 22  1  6
 21  8  1  0
 16  9  1  0
M  CHG  2   7   1  13   1
M  END
> <Identifier>
CHROMANOL

> <hERG>
1

$$$$

     RDKit          2D

 26 27  0  0  0  0  0  0  0  0999 V2000
    8.1568   -3.0996    0.0000 C   0  0  0  0  0  0  0  0  0  0  0  0
    7.8328   -1.6350    0.0000 O   0  0  0  0  0  0  0  0  0  0  0  0
    6.4024   -1.1833    0.0000 C   0  0  0  0  0  0  0  0  0  0  0  0
    5.2960   -2.1962    0.0000 C   0  0  0  0  0  0  0  0  0  0  0  0
    3.8656   -1.7446    0.0000 C   0  0  0  0  0  0  0  0  0  0  0  0
    3.5416   -0.2800    0.0000 C   0  0  0  0  0  0  0  0  0  0  0  0
    2.1112    0.1717    0.0000 C   0  0  0  0  0  0  0  0  0  0  0  0
    1.7872    1.6363    0.0000 C   0  0  0  0  0  0  0  0  0  0  0  0
    0.3568    2.0879    0.0000 N   0  0  0  0  0  4  0  0  0  0  0  0
    0.0327    3.5525    0.0000 C   0  0  0  0  0  0  0  0  0  0  0  0
   -0.7496    1.0750    0.0000 C   0  0  0  0  0  0  0  0  0  0  0  0
   -2.1799    1.5267    0.0000 C   0  0  0  0  0  0  0  0  0  0  0  0
   -3.2863    0.5137    0.0000 C   0  0  0  0  0  0  0  0  0  0  0  0
   -4.7167    0.9654    0.0000 N   0  0  0  0  0  0  0  0  0  0  0  0
   -5.8230   -0.0475    0.0000 C   0  0  0  0  0  0  0  0  0  0  0  0
   -7.2534    0.4042    0.0000 C   0  0  0  0  0  0  0  0  0  0  0  0
   -7.5774    1.8687    0.0000 Cl  0  0  0  0  0  0  0  0  0  0  0  0
   -8.3597   -0.6088    0.0000 C   0  0  0  0  0  0  0  0  0  0  0  0
   -8.0357   -2.0733    0.0000 N   0  0  0  0  0  0  0  0  0  0  0  0
   -6.6053   -2.5250    0.0000 N   0  0  0  0  0  0  0  0  0  0  0  0
   -5.4990   -1.5121    0.0000 C   0  0  0  0  0  0  0  0  0  0  0  0
   -4.0686   -1.9638    0.0000 O   0  0  0  0  0  0  0  0  0  0  0  0
    4.6479    0.7329    0.0000 C   0  0  0  0  0  0  0  0  0  0  0  0
    6.0783    0.2813    0.0000 C   0  0  0  0  0  0  0  0  0  0  0  0
    7.1847    1.2942    0.0000 O   0  0  0  0  0  0  0  0  0  0  0  0
    6.8606    2.7588    0.0000 C   0  0  0  0  0  0  0  0  0  0  0  0
  1  2  1  0
  2  3  1  0
  3  4  2  0
  4  5  1  0
  5  6  2  0
  6  7  1  0
  7  8  1  0
  8  9  1  0
  9 10  1  0
  9 11  1  0
 11 12  1  0
 12 13  1  0
 13 14  1  0
 14 15  1  0
 15 16  2  0
 16 17  1  0
 16 18  1  0
 18 19  2  0
 19 20  1  0
 20 21  1  0
 21 22  2  0
  6 23  1  0
 23 24  2  0
 24 25  1  0
 25 26  1  0
 24  3  1  0
 21 15  1  0
M  CHG  1   9   1
M  END
> <Identifier>
EGIS7229

> <hERG>
1

$$$$

     RDKit          2D

 32 35  0  0  0  0  0  0  0  0999 V2000
   -6.7504   -1.7628    0.0000 C   0  0  0  0  0  0  0  0  0  0  0  0
   -5.3629   -1.1930    0.0000 C   0  0  0  0  0  0  0  0  0  0  0  0
   -4.1756   -2.1097    0.0000 N   0  0  0  0  0  0  0  0  0  0  0  0
   -2.7881   -1.5399    0.0000 C   0  0  0  0  0  0  0  0  0  0  0  0
   -2.5878   -0.0534    0.0000 C   0  0  0  0  0  0  0  0  0  0  0  0
   -1.2002    0.5165    0.0000 C   0  0  0  0  0  0  0  0  0  0  0  0
   -0.9999    2.0030    0.0000 C   0  0  0  0  0  0  0  0  0  0  0  0
   -2.1872    2.9198    0.0000 C   0  0  0  0  0  0  0  0  0  0  0  0
   -1.9869    4.4063    0.0000 O   0  0  0  0  0  0  0  0  0  0  0  0
   -0.5993    4.9762    0.0000 C   0  0  0  0  0  0  0  0  0  0  0  0
   -3.5747    2.3500    0.0000 C   0  0  0  0  0  0  0  0  0  0  0  0
   -4.7620    3.2667    0.0000 O   0  0  0  0  0  0  0  0  0  0  0  0
   -6.1495    2.6969    0.0000 C   0  0  0  0  0  0  0  0  0  0  0  0
   -3.7750    0.8634    0.0000 C   0  0  0  0  0  0  0  0  0  0  0  0
   -1.6008   -2.4567    0.0000 N   0  0  0  0  0  0  0  0  0  0  0  0
   -1.8011   -3.9432    0.0000 C   0  0  0  0  0  0  0  0  0  0  0  0
   -0.6139   -4.8600    0.0000 C   0  0  0  0  0  0  0  0  0  0  0  0
    0.7737   -4.2902    0.0000 C   0  0  0  0  0  0  0  0  0  0  0  0
    0.9740   -2.8036    0.0000 C   0  0  0  0  0  0  0  0  0  0  0  0
    2.3615   -2.2338    0.0000 C   0  0  0  0  0  0  0  0  0  0  0  0
    2.5618   -0.7472    0.0000 C   0  0  0  0  0  0  0  0  0  0  0  0
    3.9494   -0.1774    0.0000 C   0  0  0  0  0  0  0  0  0  0  0  0
    5.1366   -1.0942    0.0000 N   0  0  0  0  0  0  0  0  0  0  0  0
    6.5242   -0.5243    0.0000 N   0  0  0  0  0  0  0  0  0  0  0  0
    6.7245    0.9622    0.0000 C   0  0  0  0  0  0  0  0  0  0  0  0
    8.1121    1.5321    0.0000 O   0  0  0  0  0  0  0  0  0  0  0  0
    5.5372    1.8790    0.0000 S   0  0  0  0  0  0  0  0  0  0  0  0
    4.1497    1.3092    0.0000 C   0  0  0  0  0  0  0  0  0  0  0  0
    2.9624    2.2259    0.0000 C   0  0  0  0  0  0  0  0  0  0  0  0
    1.3746    0.1695    0.0000 C   0  0  0  0  0  0  0  0  0  0  0  0
   -0.0130   -0.4003    0.0000 C   0  0  0  0  0  0  0  0  0  0  0  0
   -0.2133   -1.8869    0.0000 C   0  0  0  0  0  0  0  0  0  0  0  0
  1  2  1  0
  2  3  1  0
  3  4  2  0
  4  5  1  0
  5  6  2  0
  6  7  1  0
  7  8  2  0
  8  9  1  0
  9 10  1  0
  8 11  1  0
 11 12  1  0
 12 13  1  0
 11 14  2  0
  4 15  1  0
 15 16  1  0
 16 17  1  0
 17 18  1  0
 18 19  1  0
 19 20  2  0
 20 21  1  0
 21 22  1  0
 22 23  2  0
 23 24  1  0
 24 25  1  0
 25 26  2  0
 25 27  1  0
 27 28  1  0
 28 29  1  1
 21 30  2  0
 30 31  1  0
 31 32  2  0
 14  5  1  0
 32 15  1  0
 32 19  1  0
 28 22  1  0
M  END
> <Identifier>
EMD60263

> <hERG>
1

$$$$

     RDKit          2D

 35 36  0  0  0  0  0  0  0  0999 V2000
    9.1471   -3.4689    0.0000 C   0  0  0  0  0  0  0  0  0  0  0  0
    8.9566   -1.9811    0.0000 O   0  0  0  0  0  0  0  0  0  0  0  0
    7.5729   -1.4021    0.0000 C   0  0  0  0  0  0  0  0  0  0  0  0
    6.3796   -2.3109    0.0000 C   0  0  0  0  0  0  0  0  0  0  0  0
    4.9958   -1.7319    0.0000 C   0  0  0  0  0  0  0  0  0  0  0  0
    4.8054   -0.2441    0.0000 C   0  0  0  0  0  0  0  0  0  0  0  0
    3.4216    0.3349    0.0000 C   0  0  0  0  0  0  0  0  0  0  0  0
    3.2312    1.8228    0.0000 C   0  0  0  0  0  0  0  0  0  0  0  0
    1.8474    2.4018    0.0000 N   0  0  0  0  0  0  0  0  0  0  0  0
    1.6570    3.8896    0.0000 C   0  0  0  0  0  0  0  0  0  0  0  0
    0.6541    1.4929    0.0000 C   0  0  0  0  0  0  0  0  0  0  0  0
   -0.7296    2.0719    0.0000 C   0  0  0  0  0  0  0  0  0  0  0  0
   -1.9229    1.1630    0.0000 C   0  0  0  0  0  0  0  0  0  0  0  0
   -3.3067    1.7420    0.0000 C   0  0  0  0  0  0  0  0  0  0  0  0
   -2.7277    3.1258    0.0000 C   0  0  0  0  0  0  0  0  0  0  0  0
   -2.1487    4.5095    0.0000 N   0  0  0  0  0  0  0  0  0  0  0  0
   -3.8857    0.3583    0.0000 C   0  0  0  0  0  0  0  0  0  0  0  0
   -5.3735    0.1678    0.0000 C   0  0  0  0  0  0  0  0  0  0  0  0
   -5.9525   -1.2159    0.0000 C   0  0  0  0  0  0  0  0  0  0  0  0
   -7.4404   -1.4064    0.0000 O   0  0  0  0  0  0  0  0  0  0  0  0
   -8.3493   -0.2131    0.0000 C   0  0  0  0  0  0  0  0  0  0  0  0
   -5.0437   -2.4092    0.0000 C   0  0  0  0  0  0  0  0  0  0  0  0
   -5.6227   -3.7930    0.0000 O   0  0  0  0  0  0  0  0  0  0  0  0
   -4.7138   -4.9863    0.0000 C   0  0  0  0  0  0  0  0  0  0  0  0
   -3.5558   -2.2188    0.0000 C   0  0  0  0  0  0  0  0  0  0  0  0
   -2.6469   -3.4121    0.0000 O   0  0  0  0  0  0  0  0  0  0  0  0
   -1.1591   -3.2216    0.0000 C   0  0  0  0  0  0  0  0  0  0  0  0
   -2.9768   -0.8350    0.0000 C   0  0  0  0  0  0  0  0  0  0  0  0
   -4.6904    2.3210    0.0000 C   0  0  0  0  0  0  0  0  0  0  0  0
   -4.8809    3.8089    0.0000 C   0  0  0  0  0  0  0  0  0  0  0  0
   -5.8837    1.4122    0.0000 C   0  0  0  0  0  0  0  0  0  0  0  0
    5.9987    0.6648    0.0000 C   0  0  0  0  0  0  0  0  0  0  0  0
    7.3824    0.0858    0.0000 C   0  0  0  0  0  0  0  0  0  0  0  0
    8.5757    0.9946    0.0000 O   0  0  0  0  0  0  0  0  0  0  0  0
    8.3853    2.4825    0.0000 C   0  0  0  0  0  0  0  0  0  0  0  0
  1  2  1  0
  2  3  1  0
  3  4  2  0
  4  5  1  0
  5  6  2  0
  6  7  1  0
  7  8  1  0
  8  9  1  0
  9 10  1  0
  9 11  1  0
 11 12  1  0
 12 13  1  0
 14 13  1  1
 14 15  1  0
 15 16  3  0
 14 17  1  0
 17 18  2  0
 18 19  1  0
 19 20  1  0
 20 21  1  0
 19 22  2  0
 22 23  1  0
 23 24  1  0
 22 25  1  0
 25 26  1  0
 26 27  1  0
 25 28  2  0
 14 29  1  0
 29 30  1  0
 29 31  1  0
  6 32  1  0
 32 33  2  0
 33 34  1  0
 34 35  1  0
 33  3  1  0
 28 17  1  0
M  END
> <Identifier>
METHOXYVERAPAMIL

> <hERG>
1

$$$$

     RDKit          2D

 30 34  0  0  0  0  0  0  0  0999 V2000
    2.2802   -2.5152    0.0000 O   0  0  0  0  0  0  0  0  0  0  0  0
    2.6373   -1.0583    0.0000 C   0  0  0  0  0  0  0  0  0  0  0  0
    1.5542   -0.0206    0.0000 N   0  0  0  0  0  0  0  0  0  0  0  0
    0.1139   -0.4398    0.0000 C   0  0  0  0  0  0  0  0  0  0  0  0
   -0.9692    0.5979    0.0000 C   0  0  0  0  0  0  0  0  0  0  0  0
   -2.4094    0.1788    0.0000 C   0  0  0  0  0  0  0  0  0  0  0  0
   -2.7666   -1.2781    0.0000 N   0  0  0  0  0  0  0  0  0  0  0  0
   -4.2068   -1.6972    0.0000 C   0  0  0  0  0  0  0  0  0  0  0  0
   -5.2899   -0.6595    0.0000 C   0  0  0  0  0  0  0  0  0  0  0  0
   -4.9328    0.7973    0.0000 C   0  0  0  0  0  0  0  0  0  0  0  0
   -6.0159    1.8350    0.0000 C   0  0  0  0  0  0  0  0  0  0  0  0
   -7.4562    1.4159    0.0000 C   0  0  0  0  0  0  0  0  0  0  0  0
   -7.8133   -0.0410    0.0000 C   0  0  0  0  0  0  0  0  0  0  0  0
   -6.7302   -1.0787    0.0000 C   0  0  0  0  0  0  0  0  0  0  0  0
   -9.3092   -0.1515    0.0000 O   0  0  0  0  0  0  0  0  0  0  0  0
   -9.8766    1.2370    0.0000 C   0  0  0  0  0  0  0  0  0  0  0  0
   -8.7314    2.2057    0.0000 O   0  0  0  0  0  0  0  0  0  0  0  0
   -1.6834   -2.3158    0.0000 C   0  0  0  0  0  0  0  0  0  0  0  0
   -0.2432   -1.8966    0.0000 C   0  0  0  0  0  0  0  0  0  0  0  0
    4.0775   -0.6392    0.0000 C   0  0  0  0  0  0  0  0  0  0  0  0
    5.1607   -1.6769    0.0000 C   0  0  0  0  0  0  0  0  0  0  0  0
    6.6009   -1.2577    0.0000 C   0  0  0  0  0  0  0  0  0  0  0  0
    7.6840   -2.2954    0.0000 O   0  0  0  0  0  0  0  0  0  0  0  0
    6.9580    0.1991    0.0000 C   0  0  0  0  0  0  0  0  0  0  0  0
    8.3983    0.6183    0.0000 C   0  0  0  0  0  0  0  0  0  0  0  0
    8.7554    2.0752    0.0000 C   0  0  0  0  0  0  0  0  0  0  0  0
    7.6723    3.1129    0.0000 C   0  0  0  0  0  0  0  0  0  0  0  0
    6.2320    2.6937    0.0000 C   0  0  0  0  0  0  0  0  0  0  0  0
    5.8749    1.2369    0.0000 C   0  0  0  0  0  0  0  0  0  0  0  0
    4.4347    0.8177    0.0000 O   0  0  0  0  0  0  0  0  0  0  0  0
  1  2  2  0
  2  3  1  0
  3  4  1  0
  4  5  1  0
  5  6  1  0
  6  7  1  0
  7  8  1  0
  8  9  1  0
  9 10  2  0
 10 11  1  0
 11 12  2  0
 12 13  1  0
 13 14  2  0
 13 15  1  0
 15 16  1  0
 16 17  1  0
  7 18  1  0
 18 19  1  0
  2 20  1  0
 20 21  2  0
 21 22  1  0
 22 23  2  0
 22 24  1  0
 24 25  2  0
 25 26  1  0
 26 27  2  0
 27 28  1  0
 28 29  2  0
 29 30  1  0
 19  4  1  0
 30 20  1  0
 14  9  1  0
 29 24  1  0
 17 12  1  0
M  END
> <Identifier>
JMC20066569-31

> <hERG>
1

$$$$

     RDKit          2D

 31 35  0  0  0  0  0  0  0  0999 V2000
   -8.1566    1.9197    0.0000 O   0  0  0  0  0  0  0  0  0  0  0  0
   -8.2977    0.4264    0.0000 C   0  0  0  0  0  0  0  0  0  0  0  0
   -9.5888   -0.3372    0.0000 N   0  0  0  0  0  0  0  0  0  0  0  0
   -9.2616   -1.8011    0.0000 C   0  0  0  0  0  0  0  0  0  0  0  0
   -7.7682   -1.9422    0.0000 C   0  0  0  0  0  0  0  0  0  0  0  0
   -7.1725   -0.5655    0.0000 N   0  0  0  0  0  0  0  0  0  0  0  0
   -5.7087   -0.2383    0.0000 C   0  0  0  0  0  0  0  0  0  0  0  0
   -4.6933   -1.3424    0.0000 C   0  0  0  0  0  0  0  0  0  0  0  0
   -3.2295   -1.0151    0.0000 N   0  0  0  0  0  0  0  0  0  0  0  0
   -2.2141   -2.1192    0.0000 C   0  0  0  0  0  0  0  0  0  0  0  0
   -0.7502   -1.7920    0.0000 C   0  0  0  0  0  0  0  0  0  0  0  0
   -0.3017   -0.3606    0.0000 C   0  0  0  0  0  0  0  0  0  0  0  0
    1.1621   -0.0333    0.0000 C   0  0  0  0  0  0  0  0  0  0  0  0
    2.2873   -1.0252    0.0000 C   0  0  0  0  0  0  0  0  0  0  0  0
    3.5784   -0.2616    0.0000 N   0  0  0  0  0  0  0  0  0  0  0  0
    4.9551   -0.8573    0.0000 C   0  0  0  0  0  0  0  0  0  0  0  0
    5.1275   -2.3474    0.0000 C   0  0  0  0  0  0  0  0  0  0  0  0
    6.5042   -2.9430    0.0000 C   0  0  0  0  0  0  0  0  0  0  0  0
    7.7084   -2.0487    0.0000 C   0  0  0  0  0  0  0  0  0  0  0  0
    9.0850   -2.6443    0.0000 F   0  0  0  0  0  0  0  0  0  0  0  0
    7.5359   -0.5586    0.0000 C   0  0  0  0  0  0  0  0  0  0  0  0
    6.1593    0.0371    0.0000 C   0  0  0  0  0  0  0  0  0  0  0  0
    3.2512    1.2022    0.0000 C   0  0  0  0  0  0  0  0  0  0  0  0
    4.1200    2.4249    0.0000 C   0  0  0  0  0  0  0  0  0  0  0  0
    3.4956    3.7888    0.0000 C   0  0  0  0  0  0  0  0  0  0  0  0
    2.0022    3.9299    0.0000 C   0  0  0  0  0  0  0  0  0  0  0  0
    1.3777    5.2937    0.0000 Cl  0  0  0  0  0  0  0  0  0  0  0  0
    1.1333    2.7072    0.0000 C   0  0  0  0  0  0  0  0  0  0  0  0
    1.7578    1.3433    0.0000 C   0  0  0  0  0  0  0  0  0  0  0  0
   -1.3171    0.7435    0.0000 C   0  0  0  0  0  0  0  0  0  0  0  0
   -2.7809    0.4163    0.0000 C   0  0  0  0  0  0  0  0  0  0  0  0
  1  2  2  0
  2  3  1  0
  3  4  1  0
  4  5  1  0
  5  6  1  0
  6  7  1  0
  7  8  1  0
  8  9  1  0
  9 10  1  0
 10 11  1  0
 11 12  1  0
 12 13  1  0
 13 14  2  0
 14 15  1  0
 15 16  1  0
 16 17  2  0
 17 18  1  0
 18 19  2  0
 19 20  1  0
 19 21  1  0
 21 22  2  0
 15 23  1  0
 23 24  2  0
 24 25  1  0
 25 26  2  0
 26 27  1  0
 26 28  1  0
 28 29  2  0
 12 30  1  0
 30 31  1  0
  6  2  1  0
 31  9  1  0
 29 13  1  0
 22 16  1  0
 29 23  1  0
M  END
> <Identifier>
SERTINDOLE3

> <hERG>
1

$$$$

     RDKit          2D

 22 25  0  0  0  0  0  0  0  0999 V2000
    2.4763    2.2319    0.0000 C   0  0  0  0  0  0  0  0  0  0  0  0
    1.0026    2.5117    0.0000 N   0  0  0  0  0  4  0  0  0  0  0  0
    0.5081    3.9278    0.0000 C   0  0  0  0  0  0  0  0  0  0  0  0
   -0.9656    4.2076    0.0000 C   0  0  0  0  0  0  0  0  0  0  0  0
   -1.9448    3.0713    0.0000 C   0  0  0  0  0  0  0  0  0  0  0  0
   -1.4502    1.6552    0.0000 C   0  0  0  0  0  0  0  0  0  0  0  0
    0.0234    1.3754    0.0000 C   0  0  0  0  0  0  0  0  0  0  0  0
    0.5180   -0.0408    0.0000 C   0  0  0  0  0  0  0  0  0  0  0  0
   -0.3370   -1.2732    0.0000 C   0  0  0  0  0  0  0  0  0  0  0  0
   -1.8367   -1.3060    0.0000 C   0  0  0  0  0  0  0  0  0  0  0  0
   -2.5582   -2.6210    0.0000 C   0  0  0  0  0  0  0  0  0  0  0  0
   -4.0578   -2.6538    0.0000 C   0  0  0  0  0  0  0  0  0  0  0  0
   -4.8360   -1.3714    0.0000 C   0  0  0  0  0  0  0  0  0  0  0  0
   -4.1145   -0.0563    0.0000 C   0  0  0  0  0  0  0  0  0  0  0  0
   -2.6148   -0.0236    0.0000 C   0  0  0  0  0  0  0  0  0  0  0  0
    0.5709   -2.4673    0.0000 N   0  0  0  0  0  0  0  0  0  0  0  0
    1.9870   -1.9727    0.0000 C   0  0  0  0  0  0  0  0  0  0  0  0
    3.3021   -2.6942    0.0000 C   0  0  0  0  0  0  0  0  0  0  0  0
    4.5845   -1.9161    0.0000 C   0  0  0  0  0  0  0  0  0  0  0  0
    4.5518   -0.4164    0.0000 C   0  0  0  0  0  0  0  0  0  0  0  0
    3.2367    0.3051    0.0000 C   0  0  0  0  0  0  0  0  0  0  0  0
    1.9543   -0.4731    0.0000 C   0  0  0  0  0  0  0  0  0  0  0  0
  1  2  1  0
  2  3  1  0
  3  4  1  0
  4  5  1  0
  5  6  1  0
  6  7  1  0
  7  8  1  1
  8  9  2  0
  9 10  1  0
 10 11  2  0
 11 12  1  0
 12 13  2  0
 13 14  1  0
 14 15  2  0
  9 16  1  0
 16 17  1  0
 17 18  2  0
 18 19  1  0
 19 20  2  0
 20 21  1  0
 21 22  2  0
  7  2  1  0
 22  8  1  0
 15 10  1  0
 22 17  1  0
M  CHG  1   2   1
M  END
> <Identifier>
WOMBAT02

> <hERG>
1

$$$$

     RDKit          2D

 23 26  0  0  0  0  0  0  0  0999 V2000
   -5.5867   -0.2246    0.0000 F   0  0  0  0  0  0  0  0  0  0  0  0
   -4.2877    0.5255    0.0000 C   0  0  0  0  0  0  0  0  0  0  0  0
   -4.2878    2.0255    0.0000 C   0  0  0  0  0  0  0  0  0  0  0  0
   -2.9888    2.7756    0.0000 C   0  0  0  0  0  0  0  0  0  0  0  0
   -1.6897    2.0257    0.0000 C   0  0  0  0  0  0  0  0  0  0  0  0
   -0.2632    2.4893    0.0000 N   0  0  0  0  0  0  0  0  0  0  0  0
    0.6186    1.2758    0.0000 C   0  0  0  0  0  0  0  0  0  0  0  0
    2.1186    1.2759    0.0000 C   0  0  0  0  0  0  0  0  0  0  0  0
    2.8687   -0.0231    0.0000 C   0  0  0  0  0  0  0  0  0  0  0  0
    4.3687   -0.0230    0.0000 C   0  0  0  0  0  0  0  0  0  0  0  0
    5.1186    1.2761    0.0000 C   0  0  0  0  0  0  0  0  0  0  0  0
    4.3685    2.5751    0.0000 C   0  0  0  0  0  0  0  0  0  0  0  0
    2.8685    2.5750    0.0000 C   0  0  0  0  0  0  0  0  0  0  0  0
   -0.2630    0.0622    0.0000 C   0  0  0  0  0  0  0  0  0  0  0  0
    0.2006   -1.3643    0.0000 C   0  0  0  0  0  0  0  0  0  0  0  0
    1.6678   -1.6761    0.0000 C   0  0  0  0  0  0  0  0  0  0  0  0
    2.1315   -3.1026    0.0000 N   0  0  0  0  0  4  0  0  0  0  0  0
    1.1278   -4.2174    0.0000 C   0  0  0  0  0  0  0  0  0  0  0  0
   -0.3394   -3.9056    0.0000 C   0  0  0  0  0  0  0  0  0  0  0  0
   -0.8030   -2.4791    0.0000 C   0  0  0  0  0  0  0  0  0  0  0  0
   -2.2703   -2.1673    0.0000 F   0  0  0  0  0  0  0  0  0  0  0  0
   -1.6896    0.5257    0.0000 C   0  0  0  0  0  0  0  0  0  0  0  0
   -2.9886   -0.2244    0.0000 C   0  0  0  0  0  0  0  0  0  0  0  0
  1  2  1  0
  2  3  2  0
  3  4  1  0
  4  5  2  0
  5  6  1  0
  6  7  1  0
  7  8  1  0
  8  9  2  0
  9 10  1  0
 10 11  2  0
 11 12  1  0
 12 13  2  0
  7 14  2  0
 15 14  1  6
 15 16  1  0
 16 17  1  0
 17 18  1  0
 18 19  1  0
 19 20  1  0
 20 21  1  6
 14 22  1  0
 22 23  2  0
 23  2  1  0
 22  5  1  0
 13  8  1  0
 20 15  1  0
M  CHG  1  17   1
M  END
> <Identifier>
WOMBAT39

> <hERG>
1

$$$$

     RDKit          2D

 23 26  0  0  0  0  0  0  0  0999 V2000
    2.2703    2.1673    0.0000 F   0  0  0  0  0  0  0  0  0  0  0  0
    0.8030    2.4791    0.0000 C   0  0  0  0  0  0  0  0  0  0  0  0
    0.3394    3.9056    0.0000 C   0  0  0  0  0  0  0  0  0  0  0  0
   -1.1278    4.2174    0.0000 C   0  0  0  0  0  0  0  0  0  0  0  0
   -2.1315    3.1026    0.0000 N   0  0  0  0  0  4  0  0  0  0  0  0
   -1.6678    1.6761    0.0000 C   0  0  0  0  0  0  0  0  0  0  0  0
   -0.2006    1.3643    0.0000 C   0  0  0  0  0  0  0  0  0  0  0  0
    0.2630   -0.0622    0.0000 C   0  0  0  0  0  0  0  0  0  0  0  0
   -0.6186   -1.2758    0.0000 C   0  0  0  0  0  0  0  0  0  0  0  0
   -2.1186   -1.2759    0.0000 C   0  0  0  0  0  0  0  0  0  0  0  0
   -2.8685   -2.5750    0.0000 C   0  0  0  0  0  0  0  0  0  0  0  0
   -4.3685   -2.5751    0.0000 C   0  0  0  0  0  0  0  0  0  0  0  0
   -5.1186   -1.2761    0.0000 C   0  0  0  0  0  0  0  0  0  0  0  0
   -4.3687    0.0230    0.0000 C   0  0  0  0  0  0  0  0  0  0  0  0
   -2.8687    0.0231    0.0000 C   0  0  0  0  0  0  0  0  0  0  0  0
    0.2632   -2.4893    0.0000 N   0  0  0  0  0  0  0  0  0  0  0  0
    1.6897   -2.0257    0.0000 C   0  0  0  0  0  0  0  0  0  0  0  0
    2.9888   -2.7756    0.0000 C   0  0  0  0  0  0  0  0  0  0  0  0
    4.2878   -2.0255    0.0000 C   0  0  0  0  0  0  0  0  0  0  0  0
    4.2877   -0.5255    0.0000 C   0  0  0  0  0  0  0  0  0  0  0  0
    5.5867    0.2246    0.0000 Cl  0  0  0  0  0  0  0  0  0  0  0  0
    2.9886    0.2244    0.0000 C   0  0  0  0  0  0  0  0  0  0  0  0
    1.6896   -0.5257    0.0000 C   0  0  0  0  0  0  0  0  0  0  0  0
  2  1  1  6
  2  3  1  0
  3  4  1  0
  4  5  1  0
  5  6  1  0
  6  7  1  0
  7  8  1  6
  8  9  2  0
  9 10  1  0
 10 11  2  0
 11 12  1  0
 12 13  2  0
 13 14  1  0
 14 15  2  0
  9 16  1  0
 16 17  1  0
 17 18  2  0
 18 19  1  0
 19 20  2  0
 20 21  1  0
 20 22  1  0
 22 23  2  0
  7  2  1  0
 23  8  1  0
 15 10  1  0
 23 17  1  0
M  CHG  1   5   1
M  END
> <Identifier>
WOMBAT64

> <hERG>
1

$$$$

     RDKit          2D

 22 24  0  0  0  0  0  0  0  0999 V2000
    0.0104    3.9897    0.0000 C   0  0  0  0  0  0  0  0  0  0  0  0
   -0.3412    2.5314    0.0000 O   0  0  0  0  0  0  0  0  0  0  0  0
   -1.7799    2.1068    0.0000 C   0  0  0  0  0  0  0  0  0  0  0  0
   -2.8669    3.1404    0.0000 O   0  0  0  0  0  0  0  0  0  0  0  0
   -2.1314    0.6486    0.0000 C   0  0  0  0  0  0  0  0  0  0  0  0
   -1.0444   -0.3850    0.0000 C   0  0  0  0  0  0  0  0  0  0  0  0
    0.3943    0.0396    0.0000 O   0  0  0  0  0  0  0  0  0  0  0  0
    1.4814   -0.9939    0.0000 C   0  0  0  0  0  0  0  0  0  0  0  0
    1.1298   -2.4522    0.0000 O   0  0  0  0  0  0  0  0  0  0  0  0
    2.9200   -0.5693    0.0000 C   0  0  0  0  0  0  0  0  0  0  0  0
    4.0071   -1.6029    0.0000 C   0  0  0  0  0  0  0  0  0  0  0  0
    5.4457   -1.1782    0.0000 C   0  0  0  0  0  0  0  0  0  0  0  0
    5.7973    0.2800    0.0000 C   0  0  0  0  0  0  0  0  0  0  0  0
    4.7102    1.3136    0.0000 C   0  0  0  0  0  0  0  0  0  0  0  0
    3.2716    0.8889    0.0000 C   0  0  0  0  0  0  0  0  0  0  0  0
   -1.3959   -1.8432    0.0000 C   0  0  0  0  0  0  0  0  0  0  0  0
   -2.8830   -2.1038    0.0000 C   0  0  0  0  0  0  0  0  0  0  0  0
   -4.3824   -2.0631    0.0000 C   0  0  0  0  0  0  0  0  0  0  0  0
   -4.8071   -0.6245    0.0000 C   0  0  0  0  0  0  0  0  0  0  0  0
   -3.5701    0.2239    0.0000 C   0  0  0  0  0  0  0  0  0  0  0  0
   -2.3809   -0.6903    0.0000 N   0  0  0  0  0  4  0  0  0  0  0  0
   -1.5845   -0.6564    0.0000 C   0  0  0  0  0  0  0  0  0  0  0  0
  1  2  1  0
  2  3  1  0
  3  4  2  0
  5  3  1  1
  5  6  1  0
  6  7  1  6
  7  8  1  0
  8  9  2  0
  8 10  1  0
 10 11  2  0
 11 12  1  0
 12 13  2  0
 13 14  1  0
 14 15  2  0
  6 16  1  0
 17 16  1  6
 17 18  1  0
 18 19  1  0
 20 19  1  6
 20 21  1  0
 21 22  1  0
 20  5  1  0
 15 10  1  0
 21 17  1  0
M  CHG  1  21   1
M  END
> <Identifier>
COCAINE

> <hERG>
1

$$$$

     RDKit          2D

 29 32  0  0  0  0  0  0  0  0999 V2000
    2.0439   -3.9930    0.0000 N   0  0  0  0  0  0  0  0  0  0  0  0
    0.6591   -3.4166    0.0000 C   0  0  0  0  0  0  0  0  0  0  0  0
   -0.7258   -2.8402    0.0000 C   0  0  0  0  0  0  0  0  0  0  0  0
   -1.9174   -3.7513    0.0000 C   0  0  0  0  0  0  0  0  0  0  0  0
   -3.3022   -3.1749    0.0000 C   0  0  0  0  0  0  0  0  0  0  0  0
   -3.4955   -1.6874    0.0000 C   0  0  0  0  0  0  0  0  0  0  0  0
   -4.8803   -1.1110    0.0000 C   0  0  0  0  0  0  0  0  0  0  0  0
   -5.0736    0.3765    0.0000 N   0  0  0  0  0  0  0  0  0  0  0  0
   -6.3906    1.0944    0.0000 C   0  0  0  0  0  0  0  0  0  0  0  0
   -6.1147    2.5689    0.0000 N   0  0  0  0  0  0  0  0  0  0  0  0
   -4.6272    2.7621    0.0000 C   0  0  0  0  0  0  0  0  0  0  0  0
   -3.9837    1.4071    0.0000 C   0  0  0  0  0  0  0  0  0  0  0  0
   -2.5093    1.1313    0.0000 C   0  0  0  0  0  0  0  0  0  0  0  0
   -1.5332    2.2702    0.0000 N   0  0  0  0  0  4  0  0  0  0  0  0
   -0.0588    1.9944    0.0000 C   0  0  0  0  0  0  0  0  0  0  0  0
    1.0310    3.0250    0.0000 C   0  0  0  0  0  0  0  0  0  0  0  0
    2.3480    2.3071    0.0000 C   0  0  0  0  0  0  0  0  0  0  0  0
    2.0722    0.8326    0.0000 N   0  0  0  0  0  0  0  0  0  0  0  0
    3.1028   -0.2572    0.0000 C   0  0  0  0  0  0  0  0  0  0  0  0
    4.5620    0.0905    0.0000 C   0  0  0  0  0  0  0  0  0  0  0  0
    5.5927   -0.9993    0.0000 C   0  0  0  0  0  0  0  0  0  0  0  0
    7.0518   -0.6516    0.0000 C   0  0  0  0  0  0  0  0  0  0  0  0
    7.4803    0.7859    0.0000 C   0  0  0  0  0  0  0  0  0  0  0  0
    6.4496    1.8757    0.0000 C   0  0  0  0  0  0  0  0  0  0  0  0
    4.9905    1.5280    0.0000 C   0  0  0  0  0  0  0  0  0  0  0  0
    0.5847    0.6394    0.0000 C   0  0  0  0  0  0  0  0  0  0  0  0
   -0.1333   -0.6776    0.0000 O   0  0  0  0  0  0  0  0  0  0  0  0
   -2.3039   -0.7763    0.0000 C   0  0  0  0  0  0  0  0  0  0  0  0
   -0.9190   -1.3527    0.0000 C   0  0  0  0  0  0  0  0  0  0  0  0
  1  2  3  0
  2  3  1  0
  3  4  2  0
  4  5  1  0
  5  6  2  0
  6  7  1  0
  7  8  1  0
  8  9  1  0
  9 10  2  0
 10 11  1  0
 11 12  2  0
 12 13  1  0
 13 14  1  0
 15 14  1  1
 15 16  1  0
 16 17  1  0
 17 18  1  0
 18 19  1  0
 19 20  1  0
 20 21  2  0
 21 22  1  0
 22 23  2  0
 23 24  1  0
 24 25  2  0
 18 26  1  0
 26 27  2  0
  6 28  1  0
 28 29  2  0
 29  3  1  0
 12  8  1  0
 26 15  1  0
 25 20  1  0
M  CHG  1  14   1
M  END
> <Identifier>
WOMBAT21

> <hERG>
1

$$$$

     RDKit          2D

 25 26  0  0  0  0  0  0  0  0999 V2000
   -5.5206   -0.5468    0.0000 C   0  0  0  0  0  0  0  0  0  0  0  0
   -4.0546   -0.8641    0.0000 C   0  0  0  0  0  0  0  0  0  0  0  0
   -3.5964   -2.2924    0.0000 C   0  0  0  0  0  0  0  0  0  0  0  0
   -3.0467    0.2468    0.0000 N   0  0  0  0  0  0  0  0  0  0  0  0
   -1.5807   -0.0705    0.0000 C   0  0  0  0  0  0  0  0  0  0  0  0
   -0.5728    1.0404    0.0000 C   0  0  0  0  0  0  0  0  0  0  0  0
    0.8932    0.7231    0.0000 C   0  0  0  0  0  0  0  0  0  0  0  0
    1.2105    2.1891    0.0000 C   0  0  0  0  0  0  0  0  0  0  0  0
    0.0996    3.1970    0.0000 N   0  0  0  0  0  0  0  0  0  0  0  0
    2.6389    2.6473    0.0000 O   0  0  0  0  0  0  0  0  0  0  0  0
    2.3592    0.4057    0.0000 C   0  0  0  0  0  0  0  0  0  0  0  0
    2.8174   -1.0226    0.0000 C   0  0  0  0  0  0  0  0  0  0  0  0
    4.2835   -1.3399    0.0000 C   0  0  0  0  0  0  0  0  0  0  0  0
    5.2913   -0.2290    0.0000 C   0  0  0  0  0  0  0  0  0  0  0  0
    4.8331    1.1993    0.0000 C   0  0  0  0  0  0  0  0  0  0  0  0
    3.3671    1.5167    0.0000 C   0  0  0  0  0  0  0  0  0  0  0  0
    0.5759   -0.7430    0.0000 C   0  0  0  0  0  0  0  0  0  0  0  0
   -0.8525   -1.2011    0.0000 C   0  0  0  0  0  0  0  0  0  0  0  0
   -1.1698   -2.6672    0.0000 C   0  0  0  0  0  0  0  0  0  0  0  0
   -0.0588   -3.6750    0.0000 C   0  0  0  0  0  0  0  0  0  0  0  0
    1.3695   -3.2169    0.0000 C   0  0  0  0  0  0  0  0  0  0  0  0
    1.6868   -1.7508    0.0000 N   0  0  0  0  0  0  0  0  0  0  0  0
   -3.5049    1.6751    0.0000 C   0  0  0  0  0  0  0  0  0  0  0  0
   -4.9710    1.9925    0.0000 C   0  0  0  0  0  0  0  0  0  0  0  0
   -2.4971    2.7861    0.0000 C   0  0  0  0  0  0  0  0  0  0  0  0
  1  2  1  0
  2  3  1  0
  2  4  1  0
  4  5  1  0
  5  6  1  0
  7  6  1  1
  7  8  1  0
  8  9  1  0
  8 10  2  0
  7 11  1  0
 11 12  2  0
 12 13  1  0
 13 14  2  0
 14 15  1  0
 15 16  2  0
  7 17  1  0
 17 18  2  0
 18 19  1  0
 19 20  2  0
 20 21  1  0
 21 22  2  0
  4 23  1  0
 23 24  1  0
 23 25  1  0
 16 11  1  0
 22 17  1  0
M  END
> <Identifier>
DISOPYRAMIDE PHOSPHATE

> <hERG>
1

$$$$

     RDKit          2D

 25 27  0  0  0  0  0  0  0  0999 V2000
   -7.3373    1.7974    0.0000 C   0  0  0  0  0  0  0  0  0  0  0  0
   -6.5018    0.5517    0.0000 O   0  0  0  0  0  0  0  0  0  0  0  0
   -5.0051    0.6525    0.0000 C   0  0  0  0  0  0  0  0  0  0  0  0
   -4.3441    1.9990    0.0000 C   0  0  0  0  0  0  0  0  0  0  0  0
   -2.8475    2.0998    0.0000 C   0  0  0  0  0  0  0  0  0  0  0  0
   -2.0119    0.8540    0.0000 C   0  0  0  0  0  0  0  0  0  0  0  0
   -0.5153    0.9548    0.0000 C   0  0  0  0  0  0  0  0  0  0  0  0
    0.3203   -0.2909    0.0000 C   0  0  0  0  0  0  0  0  0  0  0  0
   -0.3408   -1.6374    0.0000 N   0  0  0  0  0  0  0  0  0  0  0  0
    0.4948   -2.8831    0.0000 C   0  0  0  0  0  0  0  0  0  0  0  0
    1.9914   -2.7823    0.0000 C   0  0  0  0  0  0  0  0  0  0  0  0
    2.6525   -1.4359    0.0000 C   0  0  0  0  0  0  0  0  0  0  0  0
    4.1491   -1.3351    0.0000 C   0  0  0  0  0  0  0  0  0  0  0  0
    4.8101    0.0114    0.0000 C   0  0  0  0  0  0  0  0  0  0  0  0
    6.3067    0.1122    0.0000 O   0  0  0  0  0  0  0  0  0  0  0  0
    7.1423   -1.1335    0.0000 C   0  0  0  0  0  0  0  0  0  0  0  0
    3.9745    1.2571    0.0000 C   0  0  0  0  0  0  0  0  0  0  0  0
    4.6356    2.6036    0.0000 O   0  0  0  0  0  0  0  0  0  0  0  0
    3.8000    3.8493    0.0000 C   0  0  0  0  0  0  0  0  0  0  0  0
    2.4779    1.1564    0.0000 C   0  0  0  0  0  0  0  0  0  0  0  0
    1.8169   -0.1901    0.0000 C   0  0  0  0  0  0  0  0  0  0  0  0
   -2.6730   -0.4925    0.0000 C   0  0  0  0  0  0  0  0  0  0  0  0
   -4.1696   -0.5932    0.0000 C   0  0  0  0  0  0  0  0  0  0  0  0
   -4.8306   -1.9397    0.0000 O   0  0  0  0  0  0  0  0  0  0  0  0
   -3.9950   -3.1854    0.0000 C   0  0  0  0  0  0  0  0  0  0  0  0
  1  2  1  0
  2  3  1  0
  3  4  2  0
  4  5  1  0
  5  6  2  0
  6  7  1  0
  7  8  1  0
  8  9  2  0
  9 10  1  0
 10 11  2  0
 11 12  1  0
 12 13  2  0
 13 14  1  0
 14 15  1  0
 15 16  1  0
 14 17  2  0
 17 18  1  0
 18 19  1  0
 17 20  1  0
 20 21  2  0
  6 22  1  0
 22 23  2  0
 23 24  1  0
 24 25  1  0
 23  3  1  0
 21  8  1  0
 21 12  1  0
M  END
> <Identifier>
PAPAVERINE

> <hERG>
1

$$$$

     RDKit          2D

 32 36  0  0  0  0  0  0  0  0999 V2000
   -9.2370   -4.0364    0.0000 C   0  0  0  0  0  0  0  0  0  0  0  0
   -7.7703   -3.7219    0.0000 C   0  0  0  0  0  0  0  0  0  0  0  0
   -7.3094   -2.2945    0.0000 C   0  0  0  0  0  0  0  0  0  0  0  0
   -8.3150   -1.1816    0.0000 C   0  0  0  0  0  0  0  0  0  0  0  0
   -7.8541    0.2458    0.0000 C   0  0  0  0  0  0  0  0  0  0  0  0
   -6.3874    0.5603    0.0000 C   0  0  0  0  0  0  0  0  0  0  0  0
   -5.9265    1.9878    0.0000 C   0  0  0  0  0  0  0  0  0  0  0  0
   -6.9322    3.1007    0.0000 O   0  0  0  0  0  0  0  0  0  0  0  0
   -4.4598    2.3023    0.0000 C   0  0  0  0  0  0  0  0  0  0  0  0
   -3.4541    1.1893    0.0000 C   0  0  0  0  0  0  0  0  0  0  0  0
   -1.9874    1.5038    0.0000 C   0  0  0  0  0  0  0  0  0  0  0  0
   -1.5265    2.9313    0.0000 O   0  0  0  0  0  0  0  0  0  0  0  0
   -0.9818    0.3909    0.0000 N   0  0  0  0  0  0  0  0  0  0  0  0
    0.4849    0.7054    0.0000 C   0  0  0  0  0  0  0  0  0  0  0  0
    1.4906   -0.4075    0.0000 C   0  0  0  0  0  0  0  0  0  0  0  0
    2.9573   -0.0930    0.0000 C   0  0  0  0  0  0  0  0  0  0  0  0
    3.4182    1.3344    0.0000 N   0  0  0  0  0  0  0  0  0  0  0  0
    4.8849    1.6489    0.0000 C   0  0  0  0  0  0  0  0  0  0  0  0
    5.8906    0.5360    0.0000 C   0  0  0  0  0  0  0  0  0  0  0  0
    5.4296   -0.8914    0.0000 C   0  0  0  0  0  0  0  0  0  0  0  0
    6.4353   -2.0043    0.0000 C   0  0  0  0  0  0  0  0  0  0  0  0
    7.9020   -1.6898    0.0000 C   0  0  0  0  0  0  0  0  0  0  0  0
    8.3629   -0.2624    0.0000 C   0  0  0  0  0  0  0  0  0  0  0  0
    7.3572    0.8505    0.0000 C   0  0  0  0  0  0  0  0  0  0  0  0
    9.8629   -0.2597    0.0000 O   0  0  0  0  0  0  0  0  0  0  0  0
   10.3290   -1.6854    0.0000 C   0  0  0  0  0  0  0  0  0  0  0  0
    9.1171   -2.5693    0.0000 O   0  0  0  0  0  0  0  0  0  0  0  0
    2.4125    2.4473    0.0000 C   0  0  0  0  0  0  0  0  0  0  0  0
    0.9459    2.1328    0.0000 C   0  0  0  0  0  0  0  0  0  0  0  0
   -3.9151   -0.2381    0.0000 O   0  0  0  0  0  0  0  0  0  0  0  0
   -5.3817   -0.5526    0.0000 C   0  0  0  0  0  0  0  0  0  0  0  0
   -5.8427   -1.9800    0.0000 C   0  0  0  0  0  0  0  0  0  0  0  0
  1  2  1  0
  2  3  1  0
  3  4  2  0
  4  5  1  0
  5  6  2  0
  6  7  1  0
  7  8  2  0
  7  9  1  0
  9 10  2  0
 10 11  1  0
 11 12  2  0
 11 13  1  0
 13 14  1  0
 14 15  1  0
 15 16  1  0
 16 17  1  0
 17 18  1  0
 18 19  1  0
 19 20  2  0
 20 21  1  0
 21 22  2  0
 22 23  1  0
 23 24  2  0
 23 25  1  0
 25 26  1  0
 26 27  1  0
 17 28  1  0
 28 29  1  0
 10 30  1  0
 30 31  1  0
 31 32  2  0
 32  3  1  0
 31  6  1  0
 29 14  1  0
 24 19  1  0
 27 22  1  0
M  END
> <Identifier>
JMC20066569-19

> <hERG>
1

$$$$

     RDKit          2D

 46 51  0  0  0  0  0  0  0  0999 V2000
   -5.3314    5.3319    0.0000 C   0  0  0  0  0  0  0  0  0  0  0  0
   -5.0700    3.8548    0.0000 O   0  0  0  0  0  0  0  0  0  0  0  0
   -3.6602    3.3427    0.0000 C   0  0  0  0  0  0  0  0  0  0  0  0
   -2.5117    4.3076    0.0000 C   0  0  0  0  0  0  0  0  0  0  0  0
   -1.1019    3.7954    0.0000 C   0  0  0  0  0  0  0  0  0  0  0  0
   -0.8405    2.3184    0.0000 C   0  0  0  0  0  0  0  0  0  0  0  0
    0.5694    1.8062    0.0000 C   0  0  0  0  0  0  0  0  0  0  0  0
    1.7179    2.7711    0.0000 C   0  0  0  0  0  0  0  0  0  0  0  0
    3.1277    2.2590    0.0000 C   0  0  0  0  0  0  0  0  0  0  0  0
    3.3891    0.7819    0.0000 C   0  0  0  0  0  0  0  0  0  0  0  0
    4.7990    0.2697    0.0000 C   0  0  0  0  0  0  0  0  0  0  0  0
    5.0604   -1.2073    0.0000 O   0  0  0  0  0  0  0  0  0  0  0  0
    3.9119   -2.1722    0.0000 C   0  0  0  0  0  0  0  0  0  0  0  0
    2.5020   -1.6600    0.0000 C   0  0  0  0  0  0  0  0  0  0  0  0
    1.3536   -2.6249    0.0000 C   0  0  0  0  0  0  0  0  0  0  0  0
   -0.0563   -2.1128    0.0000 C   0  0  0  0  0  0  0  0  0  0  0  0
   -1.2048   -3.0777    0.0000 C   0  0  0  0  0  0  0  0  0  0  0  0
   -2.6146   -2.5655    0.0000 C   0  0  0  0  0  0  0  0  0  0  0  0
   -2.8760   -1.0885    0.0000 C   0  0  0  0  0  0  0  0  0  0  0  0
   -4.2859   -0.5763    0.0000 C   0  0  0  0  0  0  0  0  0  0  0  0
   -4.5472    0.9007    0.0000 O   0  0  0  0  0  0  0  0  0  0  0  0
   -5.9571    1.4129    0.0000 C   0  0  0  0  0  0  0  0  0  0  0  0
   -5.4343   -1.5412    0.0000 C   0  0  0  0  0  0  0  0  0  0  0  0
   -6.8442   -1.0291    0.0000 O   0  0  0  0  0  0  0  0  0  0  0  0
   -7.1056    0.4480    0.0000 C   0  0  0  0  0  0  0  0  0  0  0  0
   -5.1729   -3.0183    0.0000 C   0  0  0  0  0  0  0  0  0  0  0  0
   -3.7631   -3.5304    0.0000 C   0  0  0  0  0  0  0  0  0  0  0  0
   -3.5017   -5.0075    0.0000 C   0  0  0  0  0  0  0  0  0  0  0  0
   -2.0918   -5.5196    0.0000 C   0  0  0  0  0  0  0  0  0  0  0  0
   -0.9434   -4.5547    0.0000 N   0  0  0  0  0  0  0  0  0  0  0  0
    0.4665   -5.0669    0.0000 C   0  0  0  0  0  0  0  0  0  0  0  0
    1.6150   -4.1020    0.0000 C   0  0  0  0  0  0  0  0  0  0  0  0
    3.0248   -4.6141    0.0000 C   0  0  0  0  0  0  0  0  0  0  0  0
    4.1733   -3.6492    0.0000 C   0  0  0  0  0  0  0  0  0  0  0  0
    5.5831   -4.1614    0.0000 O   0  0  0  0  0  0  0  0  0  0  0  0
    5.9474    1.2346    0.0000 C   0  0  0  0  0  0  0  0  0  0  0  0
    7.3573    0.7225    0.0000 O   0  0  0  0  0  0  0  0  0  0  0  0
    7.6187   -0.7546    0.0000 C   0  0  0  0  0  0  0  0  0  0  0  0
    5.6860    2.7117    0.0000 C   0  0  0  0  0  0  0  0  0  0  0  0
    4.2762    3.2238    0.0000 C   0  0  0  0  0  0  0  0  0  0  0  0
    4.0148    4.7009    0.0000 C   0  0  0  0  0  0  0  0  0  0  0  0
    2.6049    5.2130    0.0000 C   0  0  0  0  0  0  0  0  0  0  0  0
    1.4565    4.2482    0.0000 N   0  0  0  0  0  0  0  0  0  0  0  0
    0.0466    4.7603    0.0000 C   0  0  0  0  0  0  0  0  0  0  0  0
   -1.9889    1.3535    0.0000 C   0  0  0  0  0  0  0  0  0  0  0  0
   -3.3988    1.8656    0.0000 C   0  0  0  0  0  0  0  0  0  0  0  0
  1  2  1  0
  2  3  1  0
  3  4  2  0
  4  5  1  0
  5  6  2  0
  6  7  1  0
  8  7  1  1
  8  9  1  0
  9 10  2  0
 10 11  1  0
 11 12  1  0
 12 13  1  0
 13 14  2  0
 14 15  1  0
 15 16  1  0
 17 16  1  1
 17 18  1  0
 18 19  2  0
 19 20  1  0
 20 21  1  0
 21 22  1  0
 20 23  2  0
 23 24  1  0
 24 25  1  0
 23 26  1  0
 26 27  2  0
 27 28  1  0
 28 29  1  0
 29 30  1  0
 30 31  1  0
 15 32  2  0
 32 33  1  0
 33 34  2  0
 34 35  1  0
 11 36  2  0
 36 37  1  0
 37 38  1  0
 36 39  1  0
 39 40  2  0
 40 41  1  0
 41 42  1  0
 42 43  1  0
 43 44  1  0
  6 45  1  0
 45 46  2  0
 46  3  1  0
 43  8  1  0
 40  9  1  0
 34 13  1  0
 30 17  1  0
 27 18  1  0
M  END
> <Identifier>
NEFERINE

> <hERG>
1

$$$$

     RDKit          2D

 34 40  0  0  0  0  0  0  0  0999 V2000
   -3.7084   -3.7566    0.0000 C   0  0  0  0  0  0  0  0  0  0  0  0
   -3.2216   -2.3378    0.0000 O   0  0  0  0  0  0  0  0  0  0  0  0
   -1.7495   -2.0500    0.0000 C   0  0  0  0  0  0  0  0  0  0  0  0
   -0.7641   -3.1809    0.0000 C   0  0  0  0  0  0  0  0  0  0  0  0
    0.7080   -2.8931    0.0000 C   0  0  0  0  0  0  0  0  0  0  0  0
    1.1948   -1.4742    0.0000 C   0  0  0  0  0  0  0  0  0  0  0  0
   -0.0178   -1.0054    0.0000 C   0  0  0  0  0  0  0  0  0  0  0  0
   -0.8029   -1.1589    0.0000 C   0  0  0  0  0  0  0  0  0  0  0  0
   -2.2481    0.4998    0.0000 C   0  0  0  0  0  0  0  0  0  0  0  0
   -3.2334    1.6308    0.0000 C   0  0  0  0  0  0  0  0  0  0  0  0
   -1.6845    1.3067    0.0000 O   0  0  0  0  0  0  0  0  0  0  0  0
   -3.3790   -0.4855    0.0000 C   0  0  0  0  0  0  0  0  0  0  0  0
   -4.3644    0.6454    0.0000 C   0  0  0  0  0  0  0  0  0  0  0  0
   -2.3937   -1.6165    0.0000 C   0  0  0  0  0  0  0  0  0  0  0  0
   -4.5100   -1.4709    0.0000 C   0  0  0  0  0  0  0  0  0  0  0  0
    2.6669   -1.1864    0.0000 C   0  0  0  0  0  0  0  0  0  0  0  0
    2.7361    1.0072    0.0000 C   0  0  0  0  0  0  0  0  0  0  0  0
    1.6183    2.0075    0.0000 C   0  0  0  0  0  0  0  0  0  0  0  0
    1.4859    3.5016    0.0000 C   0  0  0  0  0  0  0  0  0  0  0  0
    0.1257    4.1340    0.0000 C   0  0  0  0  0  0  0  0  0  0  0  0
   -1.1020    3.2723    0.0000 C   0  0  0  0  0  0  0  0  0  0  0  0
   -2.4622    3.9047    0.0000 O   0  0  0  0  0  0  0  0  0  0  0  0
   -0.9696    1.7782    0.0000 C   0  0  0  0  0  0  0  0  0  0  0  0
    0.3905    1.1457    0.0000 C   0  0  0  0  0  0  0  0  0  0  0  0
    0.2094   -0.3433    0.0000 C   0  0  0  0  0  0  0  0  0  0  0  0
    1.1560    0.5478    0.0000 C   0  0  0  0  0  0  0  0  0  0  0  0
    1.9411    0.7013    0.0000 C   0  0  0  0  0  0  0  0  0  0  0  0
    2.4667    0.0981    0.0000 N   0  0  0  0  0  4  0  0  0  0  0  0
    4.6258    0.5203    0.0000 C   0  0  0  0  0  0  0  0  0  0  0  0
    5.6111   -0.6107    0.0000 C   0  0  0  0  0  0  0  0  0  0  0  0
    7.0299   -1.0974    0.0000 C   0  0  0  0  0  0  0  0  0  0  0  0
    5.8990   -2.0828    0.0000 C   0  0  0  0  0  0  0  0  0  0  0  0
   -1.2627   -0.6311    0.0000 C   0  0  0  0  0  0  0  0  0  0  0  0
   -1.9914    0.6800    0.0000 O   0  0  0  0  0  0  0  0  0  0  0  0
  1  2  1  0
  3  2  1  1
  3  4  1  0
  4  5  1  0
  6  5  1  6
  6  7  1  0
  8  7  1  1
  8  9  1  0
  9 10  1  1
  9 11  1  0
  9 12  1  0
 12 13  1  0
 12 14  1  0
 12 15  1  0
  6 16  1  0
 16 17  1  6
 17 18  1  0
 18 19  2  0
 19 20  1  0
 20 21  2  0
 21 22  1  0
 21 23  1  0
 23 24  2  0
 24 25  1  0
 25 26  1  1
 26 27  1  0
 27 28  1  0
 28 29  1  0
 29 30  1  0
 30 31  1  0
 31 32  1  0
 25 33  1  0
 33 34  1  6
  8  3  1  0
 28 16  1  0
 32 30  1  0
 33  3  1  0
 25  6  1  0
 24 18  1  0
 34 23  1  0
M  CHG  1  28   1
M  END
> <Identifier>
BUPRENORPHINE

> <hERG>
1

$$$$

     RDKit          2D

 30 33  0  0  0  0  0  0  0  0999 V2000
    0.5898    4.4472    0.0000 C   0  0  0  0  0  0  0  0  0  0  0  0
    0.2670    2.9824    0.0000 C   0  0  0  0  0  0  0  0  0  0  0  0
   -1.1630    2.5296    0.0000 C   0  0  0  0  0  0  0  0  0  0  0  0
   -1.4859    1.0647    0.0000 C   0  0  0  0  0  0  0  0  0  0  0  0
   -2.9159    0.6119    0.0000 C   0  0  0  0  0  0  0  0  0  0  0  0
   -4.1228    1.5027    0.0000 N   0  0  0  0  0  0  0  0  0  0  0  0
   -5.3429    0.6301    0.0000 C   0  0  0  0  0  0  0  0  0  0  0  0
   -6.7660    1.1043    0.0000 Cl  0  0  0  0  0  0  0  0  0  0  0  0
   -4.8901   -0.7999    0.0000 C   0  0  0  0  0  0  0  0  0  0  0  0
   -5.7808   -2.0068    0.0000 C   0  0  0  0  0  0  0  0  0  0  0  0
   -7.2714   -1.8388    0.0000 O   0  0  0  0  0  0  0  0  0  0  0  0
   -3.3901   -0.8111    0.0000 N   0  0  0  0  0  0  0  0  0  0  0  0
   -2.5176   -2.0312    0.0000 C   0  0  0  0  0  0  0  0  0  0  0  0
   -1.0247   -1.8856    0.0000 C   0  0  0  0  0  0  0  0  0  0  0  0
   -0.1521   -3.1057    0.0000 C   0  0  0  0  0  0  0  0  0  0  0  0
    1.3408   -2.9601    0.0000 C   0  0  0  0  0  0  0  0  0  0  0  0
    1.9612   -1.5944    0.0000 C   0  0  0  0  0  0  0  0  0  0  0  0
    3.4541   -1.4488    0.0000 C   0  0  0  0  0  0  0  0  0  0  0  0
    4.3266   -2.6689    0.0000 C   0  0  0  0  0  0  0  0  0  0  0  0
    5.8196   -2.5233    0.0000 C   0  0  0  0  0  0  0  0  0  0  0  0
    6.4399   -1.1576    0.0000 C   0  0  0  0  0  0  0  0  0  0  0  0
    5.5674    0.0625    0.0000 C   0  0  0  0  0  0  0  0  0  0  0  0
    4.0744   -0.0831    0.0000 C   0  0  0  0  0  0  0  0  0  0  0  0
    3.2019    1.1370    0.0000 C   0  0  0  0  0  0  0  0  0  0  0  0
    1.7019    1.1482    0.0000 N   0  0  0  0  0  0  0  0  0  0  0  0
    1.2491    2.5782    0.0000 N   0  0  0  0  0  0  0  0  0  0  0  0
    2.4692    3.4508    0.0000 N   0  0  0  0  0  2  0  0  0  0  0  0
    3.6761    2.5601    0.0000 N   0  0  0  0  0  0  0  0  0  0  0  0
    1.0886   -0.3743    0.0000 C   0  0  0  0  0  0  0  0  0  0  0  0
   -0.4043   -0.5199    0.0000 C   0  0  0  0  0  0  0  0  0  0  0  0
  1  2  1  0
  2  3  1  0
  3  4  1  0
  4  5  1  0
  5  6  2  0
  6  7  1  0
  7  8  1  0
  7  9  2  0
  9 10  1  0
 10 11  1  0
  9 12  1  0
 12 13  1  0
 13 14  1  0
 14 15  2  0
 15 16  1  0
 16 17  2  0
 17 18  1  0
 18 19  2  0
 19 20  1  0
 20 21  2  0
 21 22  1  0
 22 23  2  0
 23 24  1  0
 24 25  1  0
 25 26  2  0
 26 27  1  0
 27 28  1  0
 17 29  1  0
 29 30  2  0
 12  5  1  0
 30 14  1  0
 23 18  1  0
 28 24  2  0
M  CHG  1  27  -1
M  END
> <Identifier>
LOSARTAN

> <hERG>
1

$$$$

     RDKit          2D

 29 31  0  0  0  0  0  0  0  0999 V2000
   -0.2329   -2.7285    0.0000 C   0  0  0  0  0  0  0  0  0  0  0  0
   -1.7158   -2.5024    0.0000 C   0  0  0  0  0  0  0  0  0  0  0  0
   -2.2614   -1.1051    0.0000 O   0  0  0  0  0  0  0  0  0  0  0  0
   -3.7443   -0.8790    0.0000 C   0  0  0  0  0  0  0  0  0  0  0  0
   -4.6815   -2.0502    0.0000 C   0  0  0  0  0  0  0  0  0  0  0  0
   -6.1644   -1.8240    0.0000 C   0  0  0  0  0  0  0  0  0  0  0  0
   -7.1016   -2.9952    0.0000 N   0  0  0  0  0  0  0  0  0  0  0  0
   -6.7100   -0.4268    0.0000 C   0  0  0  0  0  0  0  0  0  0  0  0
   -8.1928   -0.2007    0.0000 Cl  0  0  0  0  0  0  0  0  0  0  0  0
   -5.7727    0.7443    0.0000 C   0  0  0  0  0  0  0  0  0  0  0  0
   -4.2899    0.5182    0.0000 C   0  0  0  0  0  0  0  0  0  0  0  0
   -3.3526    1.6894    0.0000 C   0  0  0  0  0  0  0  0  0  0  0  0
   -3.8982    3.0866    0.0000 O   0  0  0  0  0  0  0  0  0  0  0  0
   -1.8698    1.4632    0.0000 N   0  0  0  0  0  0  0  0  0  0  0  0
   -0.9325    2.6344    0.0000 C   0  0  0  0  0  0  0  0  0  0  0  0
    0.5504    2.4082    0.0000 C   0  0  0  0  0  0  0  0  0  0  0  0
    1.0960    1.0110    0.0000 C   0  0  0  0  0  0  0  0  0  0  0  0
    2.5788    0.7849    0.0000 N   0  0  0  0  0  4  0  0  0  0  0  0
    3.1244   -0.6124    0.0000 C   0  0  0  0  0  0  0  0  0  0  0  0
    4.6073   -0.8385    0.0000 C   0  0  0  0  0  0  0  0  0  0  0  0
    5.5445    0.3326    0.0000 C   0  0  0  0  0  0  0  0  0  0  0  0
    7.0274    0.1065    0.0000 C   0  0  0  0  0  0  0  0  0  0  0  0
    7.5730   -1.2907    0.0000 C   0  0  0  0  0  0  0  0  0  0  0  0
    9.0559   -1.5169    0.0000 F   0  0  0  0  0  0  0  0  0  0  0  0
    6.6357   -2.4619    0.0000 C   0  0  0  0  0  0  0  0  0  0  0  0
    5.1529   -2.2358    0.0000 C   0  0  0  0  0  0  0  0  0  0  0  0
    3.5161    1.9560    0.0000 C   0  0  0  0  0  0  0  0  0  0  0  0
    2.9705    3.3533    0.0000 C   0  0  0  0  0  0  0  0  0  0  0  0
    1.4876    3.5794    0.0000 O   0  0  0  0  0  0  0  0  0  0  0  0
  1  2  1  0
  2  3  1  0
  3  4  1  0
  4  5  2  0
  5  6  1  0
  6  7  1  0
  6  8  2  0
  8  9  1  0
  8 10  1  0
 10 11  2  0
 11 12  1  0
 12 13  2  0
 12 14  1  0
 14 15  1  0
 16 15  1  1
 16 17  1  0
 17 18  1  0
 18 19  1  0
 19 20  1  0
 20 21  2  0
 21 22  1  0
 22 23  2  0
 23 24  1  0
 23 25  1  0
 25 26  2  0
 18 27  1  0
 27 28  1  0
 28 29  1  0
 11  4  1  0
 29 16  1  0
 26 20  1  0
M  CHG  1  18   1
M  END
> <Identifier>
MOSAPRIDE

> <hERG>
1

$$$$

     RDKit          2D

 28 30  0  0  0  0  0  0  0  0999 V2000
   -1.8093   -5.0683    0.0000 C   0  0  0  0  0  0  0  0  0  0  0  0
   -2.7278   -3.8824    0.0000 C   0  0  0  0  0  0  0  0  0  0  0  0
   -3.6464   -2.6965    0.0000 C   0  0  0  0  0  0  0  0  0  0  0  0
   -3.9137   -4.8010    0.0000 C   0  0  0  0  0  0  0  0  0  0  0  0
   -1.5420   -2.9638    0.0000 C   0  0  0  0  0  0  0  0  0  0  0  0
   -0.1535   -3.5315    0.0000 O   0  0  0  0  0  0  0  0  0  0  0  0
   -1.7445   -1.4776    0.0000 C   0  0  0  0  0  0  0  0  0  0  0  0
   -3.1330   -0.9099    0.0000 O   0  0  0  0  0  0  0  0  0  0  0  0
   -0.5587   -0.5590    0.0000 N   0  0  0  0  0  0  0  0  0  0  0  0
    0.8815   -0.9785    0.0000 C   0  0  0  0  0  0  0  0  0  0  0  0
    1.7254    0.2616    0.0000 C   0  0  0  0  0  0  0  0  0  0  0  0
    3.2247    0.3077    0.0000 C   0  0  0  0  0  0  0  0  0  0  0  0
    4.0143   -0.9677    0.0000 C   0  0  0  0  0  0  0  0  0  0  0  0
    5.5136   -0.9216    0.0000 C   0  0  0  0  0  0  0  0  0  0  0  0
    6.3032   -2.1970    0.0000 F   0  0  0  0  0  0  0  0  0  0  0  0
    6.2233    0.3999    0.0000 C   0  0  0  0  0  0  0  0  0  0  0  0
    5.4337    1.6752    0.0000 C   0  0  0  0  0  0  0  0  0  0  0  0
    3.9345    1.6291    0.0000 C   0  0  0  0  0  0  0  0  0  0  0  0
    3.1449    2.9045    0.0000 F   0  0  0  0  0  0  0  0  0  0  0  0
    0.8069    1.4474    0.0000 C   0  0  0  0  0  0  0  0  0  0  0  0
   -0.6048    0.9403    0.0000 C   0  0  0  0  0  0  0  0  0  0  0  0
   -1.8448    1.7842    0.0000 C   0  0  0  0  0  0  0  0  0  0  0  0
   -3.1957    1.1323    0.0000 C   0  0  0  0  0  0  0  0  0  0  0  0
   -4.4358    1.9763    0.0000 C   0  0  0  0  0  0  0  0  0  0  0  0
   -4.3249    3.4722    0.0000 C   0  0  0  0  0  0  0  0  0  0  0  0
   -2.9740    4.1241    0.0000 C   0  0  0  0  0  0  0  0  0  0  0  0
   -2.8631    5.6200    0.0000 O   0  0  0  0  0  0  0  0  0  0  0  0
   -1.7340    3.2801    0.0000 C   0  0  0  0  0  0  0  0  0  0  0  0
  1  2  1  0
  2  3  1  0
  2  4  1  0
  2  5  1  0
  5  6  1  1
  5  7  1  0
  7  8  2  0
  7  9  1  0
  9 10  1  0
 10 11  1  0
 11 12  1  0
 12 13  2  0
 13 14  1  0
 14 15  1  0
 14 16  2  0
 16 17  1  0
 17 18  2  0
 18 19  1  0
 11 20  2  0
 20 21  1  0
 21 22  1  6
 22 23  2  0
 23 24  1  0
 24 25  2  0
 25 26  1  0
 26 27  1  0
 26 28  2  0
 21  9  1  0
 28 22  1  0
 18 12  1  0
M  END
> <Identifier>
BMCL-16-2006-17782-18

> <hERG>
1

$$$$

     RDKit          2D

 26 28  0  0  0  0  0  0  0  0999 V2000
   -3.2958   -3.2192    0.0000 C   0  0  0  0  0  0  0  0  0  0  0  0
   -2.8917   -1.7747    0.0000 C   0  0  0  0  0  0  0  0  0  0  0  0
   -2.4876   -0.3301    0.0000 C   0  0  0  0  0  0  0  0  0  0  0  0
   -4.3363   -1.3706    0.0000 C   0  0  0  0  0  0  0  0  0  0  0  0
   -1.4472   -2.1788    0.0000 C   0  0  0  0  0  0  0  0  0  0  0  0
   -1.0748   -3.6318    0.0000 O   0  0  0  0  0  0  0  0  0  0  0  0
   -0.3749   -1.1298    0.0000 N   0  0  0  0  0  0  0  0  0  0  0  0
    1.1039   -1.3807    0.0000 C   0  0  0  0  0  0  0  0  0  0  0  0
    1.7995   -0.0517    0.0000 C   0  0  0  0  0  0  0  0  0  0  0  0
    3.2835    0.1667    0.0000 C   0  0  0  0  0  0  0  0  0  0  0  0
    4.2147   -1.0093    0.0000 C   0  0  0  0  0  0  0  0  0  0  0  0
    5.6987   -0.7909    0.0000 C   0  0  0  0  0  0  0  0  0  0  0  0
    6.6299   -1.9669    0.0000 F   0  0  0  0  0  0  0  0  0  0  0  0
    6.2516    0.6035    0.0000 C   0  0  0  0  0  0  0  0  0  0  0  0
    5.3204    1.7795    0.0000 C   0  0  0  0  0  0  0  0  0  0  0  0
    3.8364    1.5611    0.0000 C   0  0  0  0  0  0  0  0  0  0  0  0
    2.9052    2.7371    0.0000 F   0  0  0  0  0  0  0  0  0  0  0  0
    0.7505    1.0205    0.0000 C   0  0  0  0  0  0  0  0  0  0  0  0
   -0.5933    0.3542    0.0000 C   0  0  0  0  0  0  0  0  0  0  0  0
   -1.9223    1.0498    0.0000 C   0  0  0  0  0  0  0  0  0  0  0  0
   -1.9844    2.5485    0.0000 C   0  0  0  0  0  0  0  0  0  0  0  0
   -3.3134    3.2441    0.0000 C   0  0  0  0  0  0  0  0  0  0  0  0
   -4.5803    2.4410    0.0000 C   0  0  0  0  0  0  0  0  0  0  0  0
   -4.5182    0.9423    0.0000 C   0  0  0  0  0  0  0  0  0  0  0  0
   -5.7850    0.1391    0.0000 O   0  0  0  0  0  0  0  0  0  0  0  0
   -3.1892    0.2467    0.0000 C   0  0  0  0  0  0  0  0  0  0  0  0
  1  2  1  0
  2  3  1  0
  2  4  1  0
  2  5  1  0
  5  6  2  0
  5  7  1  0
  7  8  1  0
  8  9  1  0
  9 10  1  0
 10 11  2  0
 11 12  1  0
 12 13  1  0
 12 14  2  0
 14 15  1  0
 15 16  2  0
 16 17  1  0
  9 18  2  0
 18 19  1  0
 19 20  1  6
 20 21  2  0
 21 22  1  0
 22 23  2  0
 23 24  1  0
 24 25  1  0
 24 26  2  0
 19  7  1  0
 26 20  1  0
 16 10  1  0
M  END
> <Identifier>
BMCL-16-2006-1782-14

> <hERG>
1

$$$$

     RDKit          2D

 20 22  0  0  0  0  0  0  0  0999 V2000
   -5.1344   -0.9559    0.0000 C   0  0  0  0  0  0  0  0  0  0  0  0
   -4.5478    0.4246    0.0000 C   0  0  0  0  0  0  0  0  0  0  0  0
   -3.0590    0.6070    0.0000 C   0  0  0  0  0  0  0  0  0  0  0  0
   -2.1566   -0.5913    0.0000 C   0  0  0  0  0  0  0  0  0  0  0  0
   -0.6677   -0.4090    0.0000 C   0  0  0  0  0  0  0  0  0  0  0  0
    0.2346   -1.6072    0.0000 C   0  0  0  0  0  0  0  0  0  0  0  0
    1.7235   -1.4249    0.0000 C   0  0  0  0  0  0  0  0  0  0  0  0
    2.6258   -2.6231    0.0000 C   0  0  0  0  0  0  0  0  0  0  0  0
    4.1147   -2.4408    0.0000 C   0  0  0  0  0  0  0  0  0  0  0  0
    4.7012   -1.0602    0.0000 C   0  0  0  0  0  0  0  0  0  0  0  0
    3.7989    0.1380    0.0000 C   0  0  0  0  0  0  0  0  0  0  0  0
    2.3100   -0.0443    0.0000 N   0  0  0  0  0  4  0  0  0  0  0  0
   -0.0812    0.9716    0.0000 C   0  0  0  0  0  0  0  0  0  0  0  0
    1.4077    1.1539    0.0000 C   0  0  0  0  0  0  0  0  0  0  0  0
    1.9942    2.5345    0.0000 C   0  0  0  0  0  0  0  0  0  0  0  0
    1.0919    3.7328    0.0000 C   0  0  0  0  0  0  0  0  0  0  0  0
   -0.3970    3.5504    0.0000 C   0  0  0  0  0  0  0  0  0  0  0  0
   -0.9835    2.1699    0.0000 C   0  0  0  0  0  0  0  0  0  0  0  0
   -2.7432   -1.9719    0.0000 C   0  0  0  0  0  0  0  0  0  0  0  0
   -4.2320   -2.1542    0.0000 C   0  0  0  0  0  0  0  0  0  0  0  0
  1  2  1  0
  2  3  1  0
  3  4  1  0
  4  5  1  0
  5  6  1  0
  7  6  1  6
  7  8  1  0
  8  9  1  0
  9 10  1  0
 10 11  1  0
 11 12  1  0
  5 13  1  0
 13 14  1  0
 14 15  1  0
 15 16  1  0
 16 17  1  0
 17 18  1  0
  4 19  1  0
 19 20  1  0
 20  1  1  0
 12  7  1  0
 18 13  1  0
M  CHG  1  12   1
M  END
> <Identifier>
PERHEXILENE

> <hERG>
1

$$$$

     RDKit          2D

 32 35  0  0  0  0  0  0  0  0999 V2000
    5.6669   -2.6063    0.0000 C   0  0  0  0  0  0  0  0  0  0  0  0
    5.1579   -1.1953    0.0000 S   0  0  0  0  0  0  0  0  0  0  0  0
    6.1254   -0.0490    0.0000 C   0  0  0  0  0  0  0  0  0  0  0  0
    7.6018   -0.3137    0.0000 N   0  0  0  0  0  0  0  0  0  0  0  0
    8.5693    0.8326    0.0000 C   0  0  0  0  0  0  0  0  0  0  0  0
    8.0603    2.2436    0.0000 C   0  0  0  0  0  0  0  0  0  0  0  0
    6.5838    2.5083    0.0000 C   0  0  0  0  0  0  0  0  0  0  0  0
    5.6164    1.3620    0.0000 C   0  0  0  0  0  0  0  0  0  0  0  0
    4.1399    1.6267    0.0000 C   0  0  0  0  0  0  0  0  0  0  0  0
    3.6309    3.0377    0.0000 O   0  0  0  0  0  0  0  0  0  0  0  0
    3.1724    0.4804    0.0000 N   0  0  0  0  0  0  0  0  0  0  0  0
    3.5312   -0.9761    0.0000 C   0  0  0  0  0  0  0  0  0  0  0  0
    2.2568   -1.7674    0.0000 C   0  0  0  0  0  0  0  0  0  0  0  0
    1.1105   -0.7999    0.0000 C   0  0  0  0  0  0  0  0  0  0  0  0
   -0.3459   -1.1586    0.0000 N   0  0  0  0  0  4  0  0  0  0  0  0
   -0.7635   -2.5993    0.0000 C   0  0  0  0  0  0  0  0  0  0  0  0
   -2.2200   -2.9581    0.0000 C   0  0  0  0  0  0  0  0  0  0  0  0
   -2.7859   -4.3472    0.0000 C   0  0  0  0  0  0  0  0  0  0  0  0
   -4.2819   -4.2383    0.0000 N   0  0  0  0  0  0  0  0  0  0  0  0
   -4.6406   -2.7819    0.0000 C   0  0  0  0  0  0  0  0  0  0  0  0
   -3.3663   -1.9906    0.0000 N   0  0  0  0  0  0  0  0  0  0  0  0
   -3.2574   -0.4946    0.0000 C   0  0  0  0  0  0  0  0  0  0  0  0
   -4.4986    0.3478    0.0000 C   0  0  0  0  0  0  0  0  0  0  0  0
   -4.3897    1.8438    0.0000 C   0  0  0  0  0  0  0  0  0  0  0  0
   -5.6308    2.6861    0.0000 C   0  0  0  0  0  0  0  0  0  0  0  0
   -6.9809    2.0324    0.0000 C   0  0  0  0  0  0  0  0  0  0  0  0
   -8.2220    2.8748    0.0000 C   0  0  0  0  0  0  0  0  0  0  0  0
   -9.4632    3.7171    0.0000 N   0  0  0  0  0  0  0  0  0  0  0  0
   -7.0898    0.5364    0.0000 C   0  0  0  0  0  0  0  0  0  0  0  0
   -5.8486   -0.3060    0.0000 C   0  0  0  0  0  0  0  0  0  0  0  0
    1.6764    0.5893    0.0000 C   0  0  0  0  0  0  0  0  0  0  0  0
    0.8852    1.8636    0.0000 O   0  0  0  0  0  0  0  0  0  0  0  0
  1  2  1  0
  2  3  1  0
  3  4  2  0
  4  5  1  0
  5  6  2  0
  6  7  1  0
  7  8  2  0
  8  9  1  0
  9 10  2  0
  9 11  1  0
 11 12  1  0
 12 13  1  0
 13 14  1  0
 14 15  1  1
 15 16  1  0
 16 17  1  0
 17 18  2  0
 18 19  1  0
 19 20  2  0
 20 21  1  0
 21 22  1  0
 22 23  1  0
 23 24  2  0
 24 25  1  0
 25 26  2  0
 26 27  1  0
 27 28  3  0
 26 29  1  0
 29 30  2  0
 14 31  1  0
 31 32  2  0
  8  3  1  0
 31 11  1  0
 21 17  1  0
 30 23  1  0
M  CHG  1  15   1
M  END
> <Identifier>
WOMBAT18

> <hERG>
1

$$$$

     RDKit          2D

 20 22  0  0  0  0  0  0  0  0999 V2000
    5.3845    2.1513    0.0000 C   0  0  0  0  0  0  0  0  0  0  0  0
    4.6678    0.8336    0.0000 N   0  0  0  0  0  4  0  0  0  0  0  0
    3.1683    0.7954    0.0000 C   0  0  0  0  0  0  0  0  0  0  0  0
    2.3855    2.0749    0.0000 C   0  0  0  0  0  0  0  0  0  0  0  0
    0.8859    2.0367    0.0000 C   0  0  0  0  0  0  0  0  0  0  0  0
    0.1693    0.7190    0.0000 C   0  0  0  0  0  0  0  0  0  0  0  0
   -1.3303    0.6808    0.0000 C   0  0  0  0  0  0  0  0  0  0  0  0
   -2.1131    1.9604    0.0000 C   0  0  0  0  0  0  0  0  0  0  0  0
   -3.6126    1.9222    0.0000 C   0  0  0  0  0  0  0  0  0  0  0  0
   -4.3293    0.6045    0.0000 C   0  0  0  0  0  0  0  0  0  0  0  0
   -5.8288    0.5663    0.0000 Cl  0  0  0  0  0  0  0  0  0  0  0  0
   -3.5465   -0.6751    0.0000 C   0  0  0  0  0  0  0  0  0  0  0  0
   -4.2632   -1.9928    0.0000 Cl  0  0  0  0  0  0  0  0  0  0  0  0
   -2.0470   -0.6369    0.0000 C   0  0  0  0  0  0  0  0  0  0  0  0
    0.9521   -0.5605    0.0000 C   0  0  0  0  0  0  0  0  0  0  0  0
    0.2354   -1.8782    0.0000 C   0  0  0  0  0  0  0  0  0  0  0  0
    1.0182   -3.1577    0.0000 C   0  0  0  0  0  0  0  0  0  0  0  0
    2.5177   -3.1196    0.0000 C   0  0  0  0  0  0  0  0  0  0  0  0
    3.2344   -1.8019    0.0000 C   0  0  0  0  0  0  0  0  0  0  0  0
    2.4516   -0.5223    0.0000 C   0  0  0  0  0  0  0  0  0  0  0  0
  1  2  1  0
  3  2  1  6
  3  4  1  0
  4  5  1  0
  5  6  1  0
  6  7  1  6
  7  8  2  0
  8  9  1  0
  9 10  2  0
 10 11  1  0
 10 12  1  0
 12 13  1  0
 12 14  2  0
  6 15  1  0
 15 16  2  0
 16 17  1  0
 17 18  2  0
 18 19  1  0
 19 20  2  0
 20  3  1  0
 14  7  1  0
 20 15  1  0
M  CHG  1   2   1
M  END
> <Identifier>
SERTRALINE

> <hERG>
1

$$$$

     RDKit          2D

 32 35  0  0  0  0  0  0  0  0999 V2000
  -11.1620    0.8442    0.0000 C   0  0  0  0  0  0  0  0  0  0  0  0
  -10.1395   -0.2533    0.0000 C   0  0  0  0  0  0  0  0  0  0  0  0
   -8.6778    0.0835    0.0000 N   0  0  0  0  0  0  0  0  0  0  0  0
   -8.2386    1.5177    0.0000 C   0  0  0  0  0  0  0  0  0  0  0  0
   -9.2611    2.6152    0.0000 C   0  0  0  0  0  0  0  0  0  0  0  0
   -7.6553   -1.0140    0.0000 C   0  0  0  0  0  0  0  0  0  0  0  0
   -6.1936   -0.6772    0.0000 C   0  0  0  0  0  0  0  0  0  0  0  0
   -5.7544    0.7571    0.0000 C   0  0  0  0  0  0  0  0  0  0  0  0
   -4.2927    1.0939    0.0000 C   0  0  0  0  0  0  0  0  0  0  0  0
   -3.2702   -0.0036    0.0000 C   0  0  0  0  0  0  0  0  0  0  0  0
   -3.7094   -1.4379    0.0000 C   0  0  0  0  0  0  0  0  0  0  0  0
   -5.1711   -1.7747    0.0000 C   0  0  0  0  0  0  0  0  0  0  0  0
   -2.6868   -2.5354    0.0000 C   0  0  0  0  0  0  0  0  0  0  0  0
   -1.2251   -2.1986    0.0000 C   0  0  0  0  0  0  0  0  0  0  0  0
   -0.7860   -0.7643    0.0000 C   0  0  0  0  0  0  0  0  0  0  0  0
    0.6757   -0.4275    0.0000 N   0  0  0  0  0  0  0  0  0  0  0  0
    1.6983   -1.5250    0.0000 C   0  0  0  0  0  0  0  0  0  0  0  0
    3.1600   -1.1882    0.0000 C   0  0  0  0  0  0  0  0  0  0  0  0
    3.5991    0.2461    0.0000 N   0  0  0  0  0  0  0  0  0  0  0  0
    5.0608    0.5828    0.0000 C   0  0  0  0  0  0  0  0  0  0  0  0
    6.0834   -0.5146    0.0000 C   0  0  0  0  0  0  0  0  0  0  0  0
    7.5451   -0.1778    0.0000 C   0  0  0  0  0  0  0  0  0  0  0  0
    8.5676   -1.2753    0.0000 C   0  0  0  0  0  0  0  0  0  0  0  0
   10.0293   -0.9385    0.0000 C   0  0  0  0  0  0  0  0  0  0  0  0
   10.4685    0.4957    0.0000 C   0  0  0  0  0  0  0  0  0  0  0  0
   11.9302    0.8325    0.0000 F   0  0  0  0  0  0  0  0  0  0  0  0
    9.4460    1.5932    0.0000 C   0  0  0  0  0  0  0  0  0  0  0  0
    7.9843    1.2564    0.0000 C   0  0  0  0  0  0  0  0  0  0  0  0
    2.5766    1.3435    0.0000 C   0  0  0  0  0  0  0  0  0  0  0  0
    1.1149    1.0067    0.0000 C   0  0  0  0  0  0  0  0  0  0  0  0
    0.0924    2.1042    0.0000 O   0  0  0  0  0  0  0  0  0  0  0  0
   -1.8085    0.3332    0.0000 C   0  0  0  0  0  0  0  0  0  0  0  0
  1  2  1  0
  2  3  1  0
  3  4  1  0
  4  5  1  0
  3  6  1  0
  6  7  1  0
  7  8  2  0
  8  9  1  0
  9 10  2  0
 10 11  1  0
 11 12  2  0
 11 13  1  0
 13 14  1  0
 14 15  1  0
 15 16  1  1
 16 17  1  0
 17 18  1  0
 18 19  1  0
 19 20  1  0
 20 21  1  0
 21 22  1  0
 22 23  2  0
 23 24  1  0
 24 25  2  0
 25 26  1  0
 25 27  1  0
 27 28  2  0
 19 29  1  0
 29 30  1  0
 30 31  2  0
 15 32  1  0
 12  7  1  0
 30 16  1  0
 32 10  1  0
 28 22  1  0
M  END
> <Identifier>
AMINOMETHYL TETRAHYDRONAPHTHALENE KETOPIPERAZINE 1

> <hERG>
1

$$$$

     RDKit          2D

 35 38  0  0  0  0  0  0  0  0999 V2000
   -9.9678   -0.2135    0.0000 C   0  0  0  0  0  0  0  0  0  0  0  0
   -8.7774    0.6991    0.0000 C   0  0  0  0  0  0  0  0  0  0  0  0
   -7.3918    0.1245    0.0000 C   0  0  0  0  0  0  0  0  0  0  0  0
   -6.2014    1.0371    0.0000 C   0  0  0  0  0  0  0  0  0  0  0  0
   -4.8158    0.4625    0.0000 N   0  0  0  0  0  4  0  0  0  0  0  0
   -4.6207   -1.0248    0.0000 C   0  0  0  0  0  0  0  0  0  0  0  0
   -5.8111   -1.9374    0.0000 C   0  0  0  0  0  0  0  0  0  0  0  0
   -5.6159   -3.4247    0.0000 C   0  0  0  0  0  0  0  0  0  0  0  0
   -6.8064   -4.3373    0.0000 C   0  0  0  0  0  0  0  0  0  0  0  0
   -3.6254    1.3751    0.0000 C   0  0  0  0  0  0  0  0  0  0  0  0
   -2.2398    0.8005    0.0000 C   0  0  0  0  0  0  0  0  0  0  0  0
   -2.0447   -0.6868    0.0000 O   0  0  0  0  0  0  0  0  0  0  0  0
   -1.0494    1.7131    0.0000 C   0  0  0  0  0  0  0  0  0  0  0  0
   -1.2445    3.2004    0.0000 C   0  0  0  0  0  0  0  0  0  0  0  0
   -0.0541    4.1130    0.0000 C   0  0  0  0  0  0  0  0  0  0  0  0
   -0.2492    5.6002    0.0000 Cl  0  0  0  0  0  0  0  0  0  0  0  0
    1.3315    3.5384    0.0000 C   0  0  0  0  0  0  0  0  0  0  0  0
    1.5266    2.0511    0.0000 C   0  0  0  0  0  0  0  0  0  0  0  0
    0.3362    1.1385    0.0000 C   0  0  0  0  0  0  0  0  0  0  0  0
    0.8363   -0.2757    0.0000 C   0  0  0  0  0  0  0  0  0  0  0  0
    0.1200   -1.5936    0.0000 C   0  0  0  0  0  0  0  0  0  0  0  0
    0.9032   -2.8729    0.0000 C   0  0  0  0  0  0  0  0  0  0  0  0
    2.4027   -2.8343    0.0000 C   0  0  0  0  0  0  0  0  0  0  0  0
    3.1859   -4.1136    0.0000 Cl  0  0  0  0  0  0  0  0  0  0  0  0
    3.1190   -1.5164    0.0000 C   0  0  0  0  0  0  0  0  0  0  0  0
    2.3358   -0.2371    0.0000 C   0  0  0  0  0  0  0  0  0  0  0  0
    2.7624    1.2010    0.0000 C   0  0  0  0  0  0  0  0  0  0  0  0
    4.1766    1.7011    0.0000 C   0  0  0  0  0  0  0  0  0  0  0  0
    5.3168    0.7264    0.0000 C   0  0  0  0  0  0  0  0  0  0  0  0
    5.0428   -0.7484    0.0000 C   0  0  0  0  0  0  0  0  0  0  0  0
    6.1830   -1.7230    0.0000 C   0  0  0  0  0  0  0  0  0  0  0  0
    7.5972   -1.2229    0.0000 C   0  0  0  0  0  0  0  0  0  0  0  0
    8.7374   -2.1976    0.0000 Cl  0  0  0  0  0  0  0  0  0  0  0  0
    7.8712    0.2518    0.0000 C   0  0  0  0  0  0  0  0  0  0  0  0
    6.7310    1.2265    0.0000 C   0  0  0  0  0  0  0  0  0  0  0  0
  1  2  1  0
  2  3  1  0
  3  4  1  0
  4  5  1  0
  5  6  1  0
  6  7  1  0
  7  8  1  0
  8  9  1  0
  5 10  1  0
 10 11  1  0
 11 12  1  1
 11 13  1  0
 13 14  2  0
 14 15  1  0
 15 16  1  0
 15 17  2  0
 17 18  1  0
 18 19  2  0
 19 20  1  0
 20 21  2  0
 21 22  1  0
 22 23  2  0
 23 24  1  0
 23 25  1  0
 25 26  2  0
 26 27  1  0
 27 28  2  0
 28 29  1  0
 29 30  2  0
 30 31  1  0
 31 32  2  0
 32 33  1  0
 32 34  1  0
 34 35  2  0
 19 13  1  0
 26 20  1  0
 35 29  1  0
 27 18  1  0
M  CHG  1   5   1
M  END
> <Identifier>
LUMEFANTRINE

> <hERG>
1

$$$$

     RDKit          2D

 50 53  0  0  0  0  0  0  0  0999 V2000
   11.6688   -0.9743    0.0000 C   0  0  0  0  0  0  0  0  0  0  0  0
   10.5691    0.0458    0.0000 C   0  0  0  0  0  0  0  0  0  0  0  0
   10.9027    1.5083    0.0000 C   0  0  0  0  0  0  0  0  0  0  0  0
    9.1358   -0.3965    0.0000 C   0  0  0  0  0  0  0  0  0  0  0  0
    7.9354    0.5031    0.0000 N   0  0  0  0  0  0  0  0  0  0  0  0
    6.7090   -0.3605    0.0000 C   0  0  0  0  0  0  0  0  0  0  0  0
    5.2894    0.1241    0.0000 C   0  0  0  0  0  0  0  0  0  0  0  0
    4.9993    1.5958    0.0000 N   0  0  0  0  0  0  0  0  0  0  0  0
    6.1288    2.5829    0.0000 C   0  0  0  0  0  0  0  0  0  0  0  0
    3.5798    2.0805    0.0000 C   0  0  0  0  0  0  0  0  0  0  0  0
    3.2897    3.5522    0.0000 O   0  0  0  0  0  0  0  0  0  0  0  0
    2.4503    1.0934    0.0000 N   0  0  0  0  0  0  0  0  0  0  0  0
    1.0308    1.5780    0.0000 C   0  0  0  0  0  0  0  0  0  0  0  0
   -0.0987    0.5910    0.0000 C   0  0  0  0  0  0  0  0  0  0  0  0
   -1.5183    1.0756    0.0000 O   0  0  0  0  0  0  0  0  0  0  0  0
    0.1913   -0.8807    0.0000 N   0  0  0  0  0  0  0  0  0  0  0  0
   -0.9381   -1.8677    0.0000 C   0  0  0  0  0  0  0  0  0  0  0  0
   -0.6481   -3.3394    0.0000 C   0  0  0  0  0  0  0  0  0  0  0  0
    0.7715   -3.8241    0.0000 C   0  0  0  0  0  0  0  0  0  0  0  0
    1.0616   -5.2957    0.0000 C   0  0  0  0  0  0  0  0  0  0  0  0
    2.4811   -5.7804    0.0000 C   0  0  0  0  0  0  0  0  0  0  0  0
    3.6106   -4.7933    0.0000 C   0  0  0  0  0  0  0  0  0  0  0  0
    3.3205   -3.3216    0.0000 C   0  0  0  0  0  0  0  0  0  0  0  0
    1.9010   -2.8370    0.0000 C   0  0  0  0  0  0  0  0  0  0  0  0
   -2.3577   -1.3831    0.0000 C   0  0  0  0  0  0  0  0  0  0  0  0
   -3.4872   -2.3702    0.0000 C   0  0  0  0  0  0  0  0  0  0  0  0
   -3.1971   -3.8418    0.0000 O   0  0  0  0  0  0  0  0  0  0  0  0
   -4.9067   -1.8855    0.0000 C   0  0  0  0  0  0  0  0  0  0  0  0
   -6.0362   -2.8726    0.0000 C   0  0  0  0  0  0  0  0  0  0  0  0
   -7.4558   -2.3879    0.0000 C   0  0  0  0  0  0  0  0  0  0  0  0
   -8.5852   -3.3750    0.0000 C   0  0  0  0  0  0  0  0  0  0  0  0
  -10.0048   -2.8903    0.0000 C   0  0  0  0  0  0  0  0  0  0  0  0
  -10.2949   -1.4187    0.0000 C   0  0  0  0  0  0  0  0  0  0  0  0
   -9.1654   -0.4316    0.0000 C   0  0  0  0  0  0  0  0  0  0  0  0
   -7.7458   -0.9162    0.0000 C   0  0  0  0  0  0  0  0  0  0  0  0
   -5.1968   -0.4138    0.0000 N   0  0  0  0  0  0  0  0  0  0  0  0
   -4.0673    0.5732    0.0000 C   0  0  0  0  0  0  0  0  0  0  0  0
   -2.6478    0.0886    0.0000 O   0  0  0  0  0  0  0  0  0  0  0  0
   -4.3574    2.0449    0.0000 O   0  0  0  0  0  0  0  0  0  0  0  0
   -3.2279    3.0320    0.0000 C   0  0  0  0  0  0  0  0  0  0  0  0
   -3.5180    4.5036    0.0000 C   0  0  0  0  0  0  0  0  0  0  0  0
   -4.8791    5.1340    0.0000 C   0  0  0  0  0  0  0  0  0  0  0  0
   -4.7002    6.6233    0.0000 N   0  0  0  0  0  0  0  0  0  0  0  0
   -3.2285    6.9134    0.0000 C   0  0  0  0  0  0  0  0  0  0  0  0
   -2.4978    5.6033    0.0000 S   0  0  0  0  0  0  0  0  0  0  0  0
    0.7407    3.0497    0.0000 C   0  0  0  0  0  0  0  0  0  0  0  0
    1.8702    4.0368    0.0000 C   0  0  0  0  0  0  0  0  0  0  0  0
   -0.6789    3.5344    0.0000 C   0  0  0  0  0  0  0  0  0  0  0  0
    7.1513   -1.7938    0.0000 C   0  0  0  0  0  0  0  0  0  0  0  0
    8.6511   -1.8160    0.0000 S   0  0  0  0  0  0  0  0  0  0  0  0
  1  2  1  0
  2  3  1  0
  2  4  1  0
  4  5  2  0
  5  6  1  0
  6  7  1  0
  7  8  1  0
  8  9  1  0
  8 10  1  0
 10 11  2  0
 10 12  1  0
 13 12  1  6
 13 14  1  0
 14 15  2  0
 14 16  1  0
 16 17  1  0
 17 18  1  1
 18 19  1  0
 19 20  2  0
 20 21  1  0
 21 22  2  0
 22 23  1  0
 23 24  2  0
 17 25  1  0
 25 26  1  0
 26 27  1  6
 26 28  1  0
 28 29  1  6
 29 30  1  0
 30 31  2  0
 31 32  1  0
 32 33  2  0
 33 34  1  0
 34 35  2  0
 28 36  1  0
 36 37  1  0
 37 38  2  0
 37 39  1  0
 39 40  1  0
 40 41  1  0
 41 42  2  0
 42 43  1  0
 43 44  2  0
 44 45  1  0
 13 46  1  0
 46 47  1  0
 46 48  1  0
  6 49  2  0
 49 50  1  0
 50  4  1  0
 24 19  1  0
 35 30  1  0
 45 41  1  0
M  END
> <Identifier>
RITONAVIR

> <hERG>
1

$$$$

     RDKit          2D

 32 36  0  0  0  0  0  0  0  0999 V2000
   -9.1176   -4.1859    0.0000 N   0  0  0  0  0  0  0  0  0  0  0  0
   -7.9576   -3.2349    0.0000 C   0  0  0  0  0  0  0  0  0  0  0  0
   -6.7976   -2.2838    0.0000 C   0  0  0  0  0  0  0  0  0  0  0  0
   -7.0412   -0.8038    0.0000 C   0  0  0  0  0  0  0  0  0  0  0  0
   -5.8812    0.1473    0.0000 C   0  0  0  0  0  0  0  0  0  0  0  0
   -4.4776   -0.3818    0.0000 C   0  0  0  0  0  0  0  0  0  0  0  0
   -3.3176    0.5692    0.0000 C   0  0  0  0  0  0  0  0  0  0  0  0
   -3.5613    2.0493    0.0000 N   0  0  0  0  0  0  0  0  0  0  0  0
   -4.9019    2.7222    0.0000 C   0  0  0  0  0  0  0  0  0  0  0  0
   -4.6762    4.2051    0.0000 N   0  0  0  0  0  0  0  0  0  0  0  0
   -3.1961    4.4487    0.0000 C   0  0  0  0  0  0  0  0  0  0  0  0
   -2.5070    3.1164    0.0000 C   0  0  0  0  0  0  0  0  0  0  0  0
   -1.0241    2.8907    0.0000 C   0  0  0  0  0  0  0  0  0  0  0  0
   -0.4781    1.4936    0.0000 N   0  0  0  0  0  4  0  0  0  0  0  0
    1.0048    1.2679    0.0000 C   0  0  0  0  0  0  0  0  0  0  0  0
    2.0591    2.3350    0.0000 C   0  0  0  0  0  0  0  0  0  0  0  0
    3.3997    1.6621    0.0000 C   0  0  0  0  0  0  0  0  0  0  0  0
    3.1740    0.1791    0.0000 N   0  0  0  0  0  0  0  0  0  0  0  0
    4.2410   -0.8751    0.0000 C   0  0  0  0  0  0  0  0  0  0  0  0
    3.8616   -2.3263    0.0000 C   0  0  0  0  0  0  0  0  0  0  0  0
    4.9286   -3.3805    0.0000 C   0  0  0  0  0  0  0  0  0  0  0  0
    6.3752   -2.9835    0.0000 C   0  0  0  0  0  0  0  0  0  0  0  0
    6.7546   -1.5323    0.0000 C   0  0  0  0  0  0  0  0  0  0  0  0
    8.2011   -1.1353    0.0000 N   0  0  0  0  0  0  0  0  0  0  0  0
    8.5806    0.3159    0.0000 C   0  0  0  0  0  0  0  0  0  0  0  0
    7.5135    1.3701    0.0000 C   0  0  0  0  0  0  0  0  0  0  0  0
    6.0670    0.9731    0.0000 C   0  0  0  0  0  0  0  0  0  0  0  0
    5.6875   -0.4781    0.0000 C   0  0  0  0  0  0  0  0  0  0  0  0
    1.6939   -0.0645    0.0000 C   0  0  0  0  0  0  0  0  0  0  0  0
    1.0210   -1.4051    0.0000 O   0  0  0  0  0  0  0  0  0  0  0  0
   -4.2340   -1.8619    0.0000 C   0  0  0  0  0  0  0  0  0  0  0  0
   -5.3940   -2.8129    0.0000 C   0  0  0  0  0  0  0  0  0  0  0  0
  1  2  3  0
  2  3  1  0
  3  4  2  0
  4  5  1  0
  5  6  2  0
  6  7  1  0
  7  8  1  0
  8  9  1  0
  9 10  2  0
 10 11  1  0
 11 12  2  0
 12 13  1  0
 13 14  1  0
 15 14  1  1
 15 16  1  0
 16 17  1  0
 17 18  1  0
 18 19  1  0
 19 20  2  0
 20 21  1  0
 21 22  2  0
 22 23  1  0
 23 24  2  0
 24 25  1  0
 25 26  2  0
 26 27  1  0
 27 28  2  0
 18 29  1  0
 29 30  2  0
  6 31  1  0
 31 32  2  0
 32  3  1  0
 12  8  1  0
 29 15  1  0
 28 19  1  0
 28 23  1  0
M  CHG  1  14   1
M  END
> <Identifier>
WOMBAT19

> <hERG>
1

$$$$

     RDKit          2D

 21 23  0  0  0  0  0  0  0  0999 V2000
   -3.3101   -4.2998    0.0000 C   0  0  0  0  0  0  0  0  0  0  0  0
   -1.9515   -3.6640    0.0000 O   0  0  0  0  0  0  0  0  0  0  0  0
   -1.8227   -2.1696    0.0000 C   0  0  0  0  0  0  0  0  0  0  0  0
   -3.0526   -1.3109    0.0000 O   0  0  0  0  0  0  0  0  0  0  0  0
   -0.4641   -1.5338    0.0000 C   0  0  0  0  0  0  0  0  0  0  0  0
    0.8488   -2.2593    0.0000 N   0  0  0  0  0  0  0  0  0  0  0  0
    1.9445   -1.2349    0.0000 C   0  0  0  0  0  0  0  0  0  0  0  0
    3.4389   -1.3636    0.0000 C   0  0  0  0  0  0  0  0  0  0  0  0
    4.2976   -0.1337    0.0000 C   0  0  0  0  0  0  0  0  0  0  0  0
    5.7921   -0.2625    0.0000 F   0  0  0  0  0  0  0  0  0  0  0  0
    3.6619    1.2249    0.0000 C   0  0  0  0  0  0  0  0  0  0  0  0
    2.1675    1.3536    0.0000 C   0  0  0  0  0  0  0  0  0  0  0  0
    1.3087    0.1238    0.0000 C   0  0  0  0  0  0  0  0  0  0  0  0
   -0.1799   -0.0610    0.0000 C   0  0  0  0  0  0  0  0  0  0  0  0
   -1.2043    1.0346    0.0000 C   0  0  0  0  0  0  0  0  0  0  0  0
   -2.6654    0.6953    0.0000 C   0  0  0  0  0  0  0  0  0  0  0  0
   -3.6899    1.7909    0.0000 N   0  0  0  0  0  4  0  0  0  0  0  0
   -3.2532    3.2260    0.0000 C   0  0  0  0  0  0  0  0  0  0  0  0
   -1.7921    3.5654    0.0000 C   0  0  0  0  0  0  0  0  0  0  0  0
   -0.7677    2.4697    0.0000 C   0  0  0  0  0  0  0  0  0  0  0  0
    0.6934    2.8090    0.0000 F   0  0  0  0  0  0  0  0  0  0  0  0
  1  2  1  0
  2  3  1  0
  3  4  2  0
  3  5  1  0
  5  6  1  0
  6  7  1  0
  7  8  2  0
  8  9  1  0
  9 10  1  0
  9 11  2  0
 11 12  1  0
 12 13  2  0
 13 14  1  0
 15 14  1  6
 15 16  1  0
 16 17  1  0
 17 18  1  0
 18 19  1  0
 19 20  1  0
 20 21  1  1
 14  5  2  0
 20 15  1  0
 13  7  1  0
M  CHG  1  17   1
M  END
> <Identifier>
WOMBAT35

> <hERG>
1

$$$$

     RDKit          2D

 27 29  0  0  0  0  0  0  0  0999 V2000
   -2.1552   -5.7131    0.0000 C   0  0  0  0  0  0  0  0  0  0  0  0
   -2.4816   -4.2491    0.0000 C   0  0  0  0  0  0  0  0  0  0  0  0
   -3.9127   -3.7997    0.0000 C   0  0  0  0  0  0  0  0  0  0  0  0
   -1.3768   -3.2344    0.0000 C   0  0  0  0  0  0  0  0  0  0  0  0
    0.0543   -3.6837    0.0000 N   0  0  0  0  0  0  0  0  0  0  0  0
   -1.7032   -1.7703    0.0000 C   0  0  0  0  0  0  0  0  0  0  0  0
   -3.1343   -1.3209    0.0000 O   0  0  0  0  0  0  0  0  0  0  0  0
   -0.5985   -0.7556    0.0000 N   0  0  0  0  0  0  0  0  0  0  0  0
    0.8717   -1.0529    0.0000 C   0  0  0  0  0  0  0  0  0  0  0  0
    1.6088    0.2535    0.0000 C   0  0  0  0  0  0  0  0  0  0  0  0
    3.0990    0.4250    0.0000 C   0  0  0  0  0  0  0  0  0  0  0  0
    3.9926   -0.7797    0.0000 C   0  0  0  0  0  0  0  0  0  0  0  0
    5.4828   -0.6081    0.0000 C   0  0  0  0  0  0  0  0  0  0  0  0
    6.3765   -1.8129    0.0000 F   0  0  0  0  0  0  0  0  0  0  0  0
    6.0793    0.7681    0.0000 C   0  0  0  0  0  0  0  0  0  0  0  0
    5.1856    1.9729    0.0000 C   0  0  0  0  0  0  0  0  0  0  0  0
    3.6955    1.8013    0.0000 C   0  0  0  0  0  0  0  0  0  0  0  0
    2.8018    3.0060    0.0000 F   0  0  0  0  0  0  0  0  0  0  0  0
    0.5941    1.3582    0.0000 C   0  0  0  0  0  0  0  0  0  0  0  0
   -0.7701    0.7345    0.0000 C   0  0  0  0  0  0  0  0  0  0  0  0
   -2.0765    1.4716    0.0000 C   0  0  0  0  0  0  0  0  0  0  0  0
   -3.3680    0.7088    0.0000 C   0  0  0  0  0  0  0  0  0  0  0  0
   -4.6744    1.4459    0.0000 C   0  0  0  0  0  0  0  0  0  0  0  0
   -4.6893    2.9458    0.0000 C   0  0  0  0  0  0  0  0  0  0  0  0
   -3.3977    3.7087    0.0000 C   0  0  0  0  0  0  0  0  0  0  0  0
   -3.4126    5.2086    0.0000 O   0  0  0  0  0  0  0  0  0  0  0  0
   -2.0913    2.9716    0.0000 C   0  0  0  0  0  0  0  0  0  0  0  0
  1  2  1  0
  2  3  1  0
  2  4  1  0
  4  5  1  1
  4  6  1  0
  6  7  2  0
  6  8  1  0
  8  9  1  0
  9 10  1  0
 10 11  1  0
 11 12  2  0
 12 13  1  0
 13 14  1  0
 13 15  2  0
 15 16  1  0
 16 17  2  0
 17 18  1  0
 10 19  2  0
 19 20  1  0
 20 21  1  1
 21 22  2  0
 22 23  1  0
 23 24  2  0
 24 25  1  0
 25 26  1  0
 25 27  2  0
 20  8  1  0
 27 21  1  0
 17 11  1  0
M  END
> <Identifier>
BMCL-16-2006-17782-15

> <hERG>
1

$$$$

     RDKit          2D

 31 34  0  0  0  0  0  0  0  0999 V2000
   -8.4434    3.8155    0.0000 C   0  0  0  0  0  0  0  0  0  0  0  0
   -8.8240    2.3646    0.0000 O   0  0  0  0  0  0  0  0  0  0  0  0
   -7.7577    1.3095    0.0000 C   0  0  0  0  0  0  0  0  0  0  0  0
   -6.3109    1.7054    0.0000 C   0  0  0  0  0  0  0  0  0  0  0  0
   -5.2447    0.6503    0.0000 C   0  0  0  0  0  0  0  0  0  0  0  0
   -5.6252   -0.8006    0.0000 C   0  0  0  0  0  0  0  0  0  0  0  0
   -4.5590   -1.8556    0.0000 C   0  0  0  0  0  0  0  0  0  0  0  0
   -3.1122   -1.4598    0.0000 N   0  0  0  0  0  0  0  0  0  0  0  0
   -2.0459   -2.5148    0.0000 C   0  0  0  0  0  0  0  0  0  0  0  0
   -0.5991   -2.1189    0.0000 C   0  0  0  0  0  0  0  0  0  0  0  0
   -0.2185   -0.6680    0.0000 C   0  0  0  0  0  0  0  0  0  0  0  0
    1.2283   -0.2722    0.0000 N   0  0  0  0  0  0  0  0  0  0  0  0
    2.2945   -1.3272    0.0000 C   0  0  0  0  0  0  0  0  0  0  0  0
    1.9139   -2.7781    0.0000 O   0  0  0  0  0  0  0  0  0  0  0  0
    3.7413   -0.9313    0.0000 C   0  0  0  0  0  0  0  0  0  0  0  0
    4.8076   -1.9864    0.0000 C   0  0  0  0  0  0  0  0  0  0  0  0
    6.2544   -1.5905    0.0000 C   0  0  0  0  0  0  0  0  0  0  0  0
    7.3206   -2.6456    0.0000 O   0  0  0  0  0  0  0  0  0  0  0  0
    6.6350   -0.1396    0.0000 C   0  0  0  0  0  0  0  0  0  0  0  0
    8.0818    0.2563    0.0000 C   0  0  0  0  0  0  0  0  0  0  0  0
    8.4624    1.7072    0.0000 C   0  0  0  0  0  0  0  0  0  0  0  0
    7.3961    2.7622    0.0000 C   0  0  0  0  0  0  0  0  0  0  0  0
    7.7767    4.2131    0.0000 F   0  0  0  0  0  0  0  0  0  0  0  0
    5.9493    2.3664    0.0000 C   0  0  0  0  0  0  0  0  0  0  0  0
    5.5687    0.9154    0.0000 C   0  0  0  0  0  0  0  0  0  0  0  0
    4.1219    0.5196    0.0000 O   0  0  0  0  0  0  0  0  0  0  0  0
   -1.2848    0.3870    0.0000 C   0  0  0  0  0  0  0  0  0  0  0  0
   -2.7316   -0.0088    0.0000 C   0  0  0  0  0  0  0  0  0  0  0  0
   -7.0721   -1.1964    0.0000 C   0  0  0  0  0  0  0  0  0  0  0  0
   -8.1383   -0.1414    0.0000 C   0  0  0  0  0  0  0  0  0  0  0  0
   -9.5851   -0.5373    0.0000 F   0  0  0  0  0  0  0  0  0  0  0  0
  1  2  1  0
  2  3  1  0
  3  4  2  0
  4  5  1  0
  5  6  2  0
  6  7  1  0
  7  8  1  0
  8  9  1  0
  9 10  1  0
 10 11  1  0
 11 12  1  0
 12 13  1  0
 13 14  2  0
 13 15  1  0
 15 16  2  0
 16 17  1  0
 17 18  2  0
 17 19  1  0
 19 20  2  0
 20 21  1  0
 21 22  2  0
 22 23  1  0
 22 24  1  0
 24 25  2  0
 25 26  1  0
 11 27  1  0
 27 28  1  0
  6 29  1  0
 29 30  2  0
 30 31  1  0
 30  3  1  0
 28  8  1  0
 26 15  1  0
 25 19  1  0
M  END
> <Identifier>
JMC20066569-52

> <hERG>
1

$$$$

     RDKit          2D

 46 49  0  0  0  0  0  0  0  0999 V2000
   -6.7456   -2.3475    0.0000 C   0  0  0  0  0  0  0  0  0  0  0  0
   -7.3100   -0.9577    0.0000 C   0  0  0  0  0  0  0  0  0  0  0  0
   -8.7958   -0.7517    0.0000 C   0  0  0  0  0  0  0  0  0  0  0  0
   -9.3603    0.6380    0.0000 C   0  0  0  0  0  0  0  0  0  0  0  0
   -8.4390    1.8217    0.0000 C   0  0  0  0  0  0  0  0  0  0  0  0
   -6.9532    1.6157    0.0000 C   0  0  0  0  0  0  0  0  0  0  0  0
   -6.0319    2.7994    0.0000 C   0  0  0  0  0  0  0  0  0  0  0  0
   -6.3887    0.2260    0.0000 C   0  0  0  0  0  0  0  0  0  0  0  0
   -4.9029    0.0199    0.0000 O   0  0  0  0  0  0  0  0  0  0  0  0
   -4.3385   -1.3698    0.0000 C   0  0  0  0  0  0  0  0  0  0  0  0
   -2.8527   -1.5758    0.0000 C   0  0  0  0  0  0  0  0  0  0  0  0
   -1.9314   -0.3921    0.0000 O   0  0  0  0  0  0  0  0  0  0  0  0
   -2.2882   -2.9656    0.0000 N   0  0  0  0  0  0  0  0  0  0  0  0
   -0.8025   -3.1716    0.0000 C   0  0  0  0  0  0  0  0  0  0  0  0
   -0.2380   -4.5614    0.0000 C   0  0  0  0  0  0  0  0  0  0  0  0
    1.2478   -4.7674    0.0000 C   0  0  0  0  0  0  0  0  0  0  0  0
    1.8122   -6.1572    0.0000 C   0  0  0  0  0  0  0  0  0  0  0  0
    3.2980   -6.3632    0.0000 C   0  0  0  0  0  0  0  0  0  0  0  0
    4.2193   -5.1795    0.0000 C   0  0  0  0  0  0  0  0  0  0  0  0
    3.6549   -3.7897    0.0000 C   0  0  0  0  0  0  0  0  0  0  0  0
    2.1691   -3.5837    0.0000 C   0  0  0  0  0  0  0  0  0  0  0  0
    0.1189   -1.9879    0.0000 C   0  0  0  0  0  0  0  0  0  0  0  0
   -0.4456   -0.5982    0.0000 O   0  0  0  0  0  0  0  0  0  0  0  0
    1.6046   -2.1940    0.0000 C   0  0  0  0  0  0  0  0  0  0  0  0
    2.5260   -1.0102    0.0000 C   0  0  0  0  0  0  0  0  0  0  0  0
    4.0118   -1.2163    0.0000 C   0  0  0  0  0  0  0  0  0  0  0  0
    4.9331   -0.0326    0.0000 C   0  0  0  0  0  0  0  0  0  0  0  0
    6.4189   -0.2386    0.0000 C   0  0  0  0  0  0  0  0  0  0  0  0
    7.3402    0.9451    0.0000 C   0  0  0  0  0  0  0  0  0  0  0  0
    6.7757    2.3348    0.0000 C   0  0  0  0  0  0  0  0  0  0  0  0
    5.2899    2.5409    0.0000 C   0  0  0  0  0  0  0  0  0  0  0  0
    4.3686    1.3572    0.0000 C   0  0  0  0  0  0  0  0  0  0  0  0
    1.9615    0.3795    0.0000 N   0  0  0  0  0  0  0  0  0  0  0  0
    2.8828    1.5632    0.0000 C   0  0  0  0  0  0  0  0  0  0  0  0
    3.6755    1.6480    0.0000 O   0  0  0  0  0  0  0  0  0  0  0  0
    2.3184    2.9529    0.0000 C   0  0  0  0  0  0  0  0  0  0  0  0
    3.2397    4.1367    0.0000 C   0  0  0  0  0  0  0  0  0  0  0  0
    2.6752    5.5264    0.0000 C   0  0  0  0  0  0  0  0  0  0  0  0
    4.7255    3.9306    0.0000 C   0  0  0  0  0  0  0  0  0  0  0  0
    0.8326    3.1590    0.0000 N   0  0  0  0  0  0  0  0  0  0  0  0
    0.2681    4.5487    0.0000 C   0  0  0  0  0  0  0  0  0  0  0  0
   -1.2176    4.7548    0.0000 C   0  0  0  0  0  0  0  0  0  0  0  0
   -2.1390    3.5711    0.0000 C   0  0  0  0  0  0  0  0  0  0  0  0
   -1.5745    2.1813    0.0000 N   0  0  0  0  0  0  0  0  0  0  0  0
   -0.0887    1.9753    0.0000 C   0  0  0  0  0  0  0  0  0  0  0  0
    0.4757    0.5855    0.0000 O   0  0  0  0  0  0  0  0  0  0  0  0
  1  2  1  0
  2  3  2  0
  3  4  1  0
  4  5  2  0
  5  6  1  0
  6  7  1  0
  6  8  2  0
  8  9  1  0
  9 10  1  0
 10 11  1  0
 11 12  2  0
 11 13  1  0
 13 14  1  0
 14 15  1  1
 15 16  1  0
 16 17  2  0
 17 18  1  0
 18 19  2  0
 19 20  1  0
 20 21  2  0
 14 22  1  0
 22 23  1  6
 22 24  1  0
 25 24  1  6
 25 26  1  0
 26 27  1  0
 27 28  2  0
 28 29  1  0
 29 30  2  0
 30 31  1  0
 31 32  2  0
 25 33  1  0
 33 34  1  0
 34 35  2  0
 34 36  1  0
 36 37  1  6
 37 38  1  0
 37 39  1  0
 36 40  1  0
 40 41  1  0
 41 42  1  0
 42 43  1  0
 43 44  1  0
 44 45  1  0
 45 46  2  0
  8  2  1  0
 21 16  1  0
 32 27  1  0
 45 40  1  0
M  END
> <Identifier>
LOPINAVIR

> <hERG>
1

$$$$

     RDKit          2D

 41 44  0  0  0  0  0  0  0  0999 V2000
   -1.3821    0.7260    0.0000 O   0  0  0  0  0  0  0  0  0  0  0  0
   -1.3955   -0.7739    0.0000 C   0  0  0  0  0  0  0  0  0  0  0  0
   -2.7012   -1.5123    0.0000 C   0  0  0  0  0  0  0  0  0  0  0  0
   -3.9935   -0.7507    0.0000 C   0  0  0  0  0  0  0  0  0  0  0  0
   -3.9801    0.7493    0.0000 C   0  0  0  0  0  0  0  0  0  0  0  0
   -5.2723    1.5109    0.0000 C   0  0  0  0  0  0  0  0  0  0  0  0
   -6.5780    0.7725    0.0000 C   0  0  0  0  0  0  0  0  0  0  0  0
   -7.8703    1.5341    0.0000 C   0  0  0  0  0  0  0  0  0  0  0  0
   -9.1626    2.2957    0.0000 F   0  0  0  0  0  0  0  0  0  0  0  0
   -7.1087    2.8264    0.0000 F   0  0  0  0  0  0  0  0  0  0  0  0
   -8.6319    0.2419    0.0000 F   0  0  0  0  0  0  0  0  0  0  0  0
   -6.5915   -0.7274    0.0000 C   0  0  0  0  0  0  0  0  0  0  0  0
   -5.2992   -1.4890    0.0000 C   0  0  0  0  0  0  0  0  0  0  0  0
   -5.3126   -2.9889    0.0000 C   0  0  0  0  0  0  0  0  0  0  0  0
   -5.3261   -4.4889    0.0000 F   0  0  0  0  0  0  0  0  0  0  0  0
   -6.8126   -2.9755    0.0000 F   0  0  0  0  0  0  0  0  0  0  0  0
   -3.8127   -3.0024    0.0000 F   0  0  0  0  0  0  0  0  0  0  0  0
   -0.1032   -1.5355    0.0000 N   0  0  0  0  0  0  0  0  0  0  0  0
    1.2025   -0.7972    0.0000 C   0  0  0  0  0  0  0  0  0  0  0  0
    2.4342   -1.6532    0.0000 N   0  0  0  0  0  0  0  0  0  0  0  0
    3.8715   -1.2240    0.0000 C   0  0  0  0  0  0  0  0  0  0  0  0
    4.8818   -2.3326    0.0000 C   0  0  0  0  0  0  0  0  0  0  0  0
    4.4269   -3.7620    0.0000 C   0  0  0  0  0  0  0  0  0  0  0  0
    5.4372   -4.8706    0.0000 C   0  0  0  0  0  0  0  0  0  0  0  0
    6.9026   -4.5500    0.0000 C   0  0  0  0  0  0  0  0  0  0  0  0
    7.3575   -3.1206    0.0000 C   0  0  0  0  0  0  0  0  0  0  0  0
    6.3471   -2.0120    0.0000 C   0  0  0  0  0  0  0  0  0  0  0  0
    4.4319    0.1674    0.0000 C   0  0  0  0  0  0  0  0  0  0  0  0
    5.9319    0.1540    0.0000 C   0  0  0  0  0  0  0  0  0  0  0  0
    6.6935    1.4462    0.0000 C   0  0  0  0  0  0  0  0  0  0  0  0
    5.9552    2.7519    0.0000 C   0  0  0  0  0  0  0  0  0  0  0  0
    4.4552    2.7654    0.0000 C   0  0  0  0  0  0  0  0  0  0  0  0
    3.6936    1.4731    0.0000 C   0  0  0  0  0  0  0  0  0  0  0  0
    2.2124    1.7099    0.0000 N   0  0  0  0  0  0  0  0  0  0  0  0
    1.7831    3.1472    0.0000 C   0  0  0  0  0  0  0  0  0  0  0  0
    2.8132    4.2376    0.0000 C   0  0  0  0  0  0  0  0  0  0  0  0
    3.8433    5.3280    0.0000 F   0  0  0  0  0  0  0  0  0  0  0  0
    4.1205    3.5020    0.0000 F   0  0  0  0  0  0  0  0  0  0  0  0
    1.7228    5.2676    0.0000 F   0  0  0  0  0  0  0  0  0  0  0  0
    1.1038    0.6996    0.0000 C   0  0  0  0  0  0  0  0  0  0  0  0
   -0.2876    1.2600    0.0000 O   0  0  0  0  0  0  0  0  0  0  0  0
  1  2  2  0
  2  3  1  0
  3  4  1  0
  4  5  2  0
  5  6  1  0
  6  7  2  0
  7  8  1  0
  8  9  1  0
  8 10  1  0
  8 11  1  0
  7 12  1  0
 12 13  2  0
 13 14  1  0
 14 15  1  0
 14 16  1  0
 14 17  1  0
  2 18  1  0
 19 18  1  1
 19 20  1  0
 20 21  2  0
 21 22  1  0
 22 23  2  0
 23 24  1  0
 24 25  2  0
 25 26  1  0
 26 27  2  0
 21 28  1  0
 28 29  2  0
 29 30  1  0
 30 31  2  0
 31 32  1  0
 32 33  2  0
 33 34  1  0
 34 35  1  0
 35 36  1  0
 36 37  1  0
 36 38  1  0
 36 39  1  0
 34 40  1  0
 40 41  2  0
 13  4  1  0
 40 19  1  0
 27 22  1  0
 33 28  1  0
M  END
> <Identifier>
L-768673

> <hERG>
1

$$$$

     RDKit          2D

 35 37  0  0  0  0  0  0  0  0999 V2000
    0.5655    4.8416    0.0000 C   0  0  0  0  0  0  0  0  0  0  0  0
   -0.4361    3.7250    0.0000 C   0  0  0  0  0  0  0  0  0  0  0  0
   -1.9039    4.0341    0.0000 C   0  0  0  0  0  0  0  0  0  0  0  0
   -2.9055    2.9175    0.0000 C   0  0  0  0  0  0  0  0  0  0  0  0
   -4.3733    3.2266    0.0000 C   0  0  0  0  0  0  0  0  0  0  0  0
   -5.3749    2.1100    0.0000 C   0  0  0  0  0  0  0  0  0  0  0  0
   -4.9087    0.6843    0.0000 C   0  0  0  0  0  0  0  0  0  0  0  0
   -3.4409    0.3752    0.0000 C   0  0  0  0  0  0  0  0  0  0  0  0
   -2.9747   -1.0506    0.0000 C   0  0  0  0  0  0  0  0  0  0  0  0
   -1.5069   -1.3597    0.0000 N   0  0  0  0  0  0  0  0  0  0  0  0
   -3.9763   -2.1672    0.0000 O   0  0  0  0  0  0  0  0  0  0  0  0
   -2.4393    1.4918    0.0000 C   0  0  0  0  0  0  0  0  0  0  0  0
   -6.1206   -0.1997    0.0000 N   0  0  0  0  0  0  0  0  0  0  0  0
   -6.1178   -1.6997    0.0000 C   0  0  0  0  0  0  0  0  0  0  0  0
   -7.4154   -2.4521    0.0000 C   0  0  0  0  0  0  0  0  0  0  0  0
   -7.4126   -3.9521    0.0000 C   0  0  0  0  0  0  0  0  0  0  0  0
   -8.7102   -4.7046    0.0000 O   0  0  0  0  0  0  0  0  0  0  0  0
   -7.3358    0.6797    0.0000 C   0  0  0  0  0  0  0  0  0  0  0  0
   -6.8749    2.1072    0.0000 C   0  0  0  0  0  0  0  0  0  0  0  0
    0.0301    2.2993    0.0000 N   0  0  0  0  0  0  0  0  0  0  0  0
    1.4979    1.9902    0.0000 C   0  0  0  0  0  0  0  0  0  0  0  0
    1.9641    0.5644    0.0000 C   0  0  0  0  0  0  0  0  0  0  0  0
    3.4319    0.2553    0.0000 O   0  0  0  0  0  0  0  0  0  0  0  0
    3.8981   -1.1704    0.0000 C   0  0  0  0  0  0  0  0  0  0  0  0
    2.8965   -2.2870    0.0000 C   0  0  0  0  0  0  0  0  0  0  0  0
    3.3627   -3.7127    0.0000 C   0  0  0  0  0  0  0  0  0  0  0  0
    4.8305   -4.0218    0.0000 C   0  0  0  0  0  0  0  0  0  0  0  0
    5.8321   -2.9052    0.0000 C   0  0  0  0  0  0  0  0  0  0  0  0
    5.3659   -1.4795    0.0000 C   0  0  0  0  0  0  0  0  0  0  0  0
    6.3675   -0.3629    0.0000 O   0  0  0  0  0  0  0  0  0  0  0  0
    7.8353   -0.6720    0.0000 C   0  0  0  0  0  0  0  0  0  0  0  0
    8.8369    0.4446    0.0000 C   0  0  0  0  0  0  0  0  0  0  0  0
    9.8385    1.5612    0.0000 F   0  0  0  0  0  0  0  0  0  0  0  0
    9.9535   -0.5570    0.0000 F   0  0  0  0  0  0  0  0  0  0  0  0
    7.7203    1.4462    0.0000 F   0  0  0  0  0  0  0  0  0  0  0  0
  2  1  1  1
  2  3  1  0
  3  4  1  0
  4  5  2  0
  5  6  1  0
  6  7  2  0
  7  8  1  0
  8  9  1  0
  9 10  1  0
  9 11  2  0
  8 12  2  0
  7 13  1  0
 13 14  1  0
 14 15  1  0
 15 16  1  0
 16 17  1  0
 13 18  1  0
 18 19  1  0
  2 20  1  0
 20 21  1  0
 21 22  1  0
 22 23  1  0
 23 24  1  0
 24 25  2  0
 25 26  1  0
 26 27  2  0
 27 28  1  0
 28 29  2  0
 29 30  1  0
 30 31  1  0
 31 32  1  0
 32 33  1  0
 32 34  1  0
 32 35  1  0
 12  4  1  0
 29 24  1  0
 19  6  1  0
M  END
> <Identifier>
SILODOSIN

> <hERG>
1

$$$$

     RDKit          2D

 20 21  0  0  0  0  0  0  0  0999 V2000
   -5.0510   -2.6609    0.0000 C   0  0  0  0  0  0  0  0  0  0  0  0
   -3.8630   -1.7452    0.0000 C   0  0  0  0  0  0  0  0  0  0  0  0
   -2.4759   -2.3162    0.0000 C   0  0  0  0  0  0  0  0  0  0  0  0
   -1.2879   -1.4005    0.0000 C   0  0  0  0  0  0  0  0  0  0  0  0
   -1.4869    0.0862    0.0000 C   0  0  0  0  0  0  0  0  0  0  0  0
   -0.2988    1.0020    0.0000 O   0  0  0  0  0  0  0  0  0  0  0  0
    1.0882    0.4309    0.0000 C   0  0  0  0  0  0  0  0  0  0  0  0
    2.2763    1.3467    0.0000 C   0  0  0  0  0  0  0  0  0  0  0  0
    2.0773    2.8334    0.0000 O   0  0  0  0  0  0  0  0  0  0  0  0
    3.6633    0.7757    0.0000 C   0  0  0  0  0  0  0  0  0  0  0  0
    4.8514    1.6914    0.0000 C   0  0  0  0  0  0  0  0  0  0  0  0
    3.8624   -0.7111    0.0000 N   0  0  0  0  0  0  0  0  0  0  0  0
    5.2494   -1.2821    0.0000 C   0  0  0  0  0  0  0  0  0  0  0  0
    5.4484   -2.7688    0.0000 C   0  0  0  0  0  0  0  0  0  0  0  0
    6.4375   -0.3664    0.0000 C   0  0  0  0  0  0  0  0  0  0  0  0
   -2.8739    0.6573    0.0000 C   0  0  0  0  0  0  0  0  0  0  0  0
   -4.0620   -0.2585    0.0000 C   0  0  0  0  0  0  0  0  0  0  0  0
   -5.3000    0.5885    0.0000 C   0  0  0  0  0  0  0  0  0  0  0  0
   -4.8771    2.0276    0.0000 C   0  0  0  0  0  0  0  0  0  0  0  0
   -3.3777    2.0701    0.0000 C   0  0  0  0  0  0  0  0  0  0  0  0
  1  2  1  0
  2  3  2  0
  3  4  1  0
  4  5  2  0
  5  6  1  0
  6  7  1  0
  7  8  1  0
  8  9  1  6
  8 10  1  0
 10 11  1  6
 10 12  1  0
 12 13  1  0
 13 14  1  0
 13 15  1  0
  5 16  1  0
 16 17  2  0
 17 18  1  0
 18 19  1  0
 19 20  1  0
 17  2  1  0
 20 16  1  0
M  END
> <Identifier>
ICI-118551

> <hERG>
1

$$$$

     RDKit          2D

 22 25  0  0  0  0  0  0  0  0999 V2000
   -3.8944    2.3771    0.0000 C   0  0  0  0  0  0  0  0  0  0  0  0
   -2.3984    2.4864    0.0000 N   0  0  0  0  0  4  0  0  0  0  0  0
   -1.7451    3.8367    0.0000 C   0  0  0  0  0  0  0  0  0  0  0  0
   -0.2491    3.9460    0.0000 C   0  0  0  0  0  0  0  0  0  0  0  0
    0.5936    2.7051    0.0000 C   0  0  0  0  0  0  0  0  0  0  0  0
   -0.0597    1.3548    0.0000 C   0  0  0  0  0  0  0  0  0  0  0  0
    0.7830    0.1139    0.0000 C   0  0  0  0  0  0  0  0  0  0  0  0
    0.2744   -1.2972    0.0000 C   0  0  0  0  0  0  0  0  0  0  0  0
   -1.1662   -1.7152    0.0000 C   0  0  0  0  0  0  0  0  0  0  0  0
   -2.2485   -0.6766    0.0000 C   0  0  0  0  0  0  0  0  0  0  0  0
   -3.6891   -1.0946    0.0000 C   0  0  0  0  0  0  0  0  0  0  0  0
   -4.0474   -2.5512    0.0000 C   0  0  0  0  0  0  0  0  0  0  0  0
   -2.9651   -3.5898    0.0000 C   0  0  0  0  0  0  0  0  0  0  0  0
   -1.5245   -3.1718    0.0000 C   0  0  0  0  0  0  0  0  0  0  0  0
    1.4593   -2.2170    0.0000 N   0  0  0  0  0  0  0  0  0  0  0  0
    2.7002   -1.3743    0.0000 C   0  0  0  0  0  0  0  0  0  0  0  0
    4.1568   -1.7326    0.0000 C   0  0  0  0  0  0  0  0  0  0  0  0
    5.1954   -0.6503    0.0000 C   0  0  0  0  0  0  0  0  0  0  0  0
    4.7774    0.7903    0.0000 C   0  0  0  0  0  0  0  0  0  0  0  0
    3.3208    1.1486    0.0000 C   0  0  0  0  0  0  0  0  0  0  0  0
    2.2822    0.0663    0.0000 C   0  0  0  0  0  0  0  0  0  0  0  0
   -1.5557    1.2455    0.0000 C   0  0  0  0  0  0  0  0  0  0  0  0
  1  2  1  0
  2  3  1  0
  3  4  1  0
  4  5  1  0
  5  6  1  0
  6  7  1  6
  7  8  2  0
  8  9  1  0
  9 10  2  0
 10 11  1  0
 11 12  2  0
 12 13  1  0
 13 14  2  0
  8 15  1  0
 15 16  1  0
 16 17  2  0
 17 18  1  0
 18 19  2  0
 19 20  1  0
 20 21  2  0
  6 22  1  0
 22  2  1  0
 21  7  1  0
 14  9  1  0
 21 16  1  0
M  CHG  1   2   1
M  END
> <Identifier>
WOMBAT05

> <hERG>
1

$$$$

     RDKit          2D

 23 24  0  0  0  0  0  0  0  0999 V2000
   -0.5876    3.9332    0.0000 C   0  0  0  0  0  0  0  0  0  0  0  0
    0.0856    2.5927    0.0000 C   0  0  0  0  0  0  0  0  0  0  0  0
   -0.7386    1.3395    0.0000 C   0  0  0  0  0  0  0  0  0  0  0  0
   -1.9339    1.5574    0.0000 O   0  0  0  0  0  0  0  0  0  0  0  0
   -0.0653   -0.0009    0.0000 C   0  0  0  0  0  0  0  0  0  0  0  0
   -1.4058   -0.6742    0.0000 C   0  0  0  0  0  0  0  0  0  0  0  0
   -2.6590    0.1500    0.0000 C   0  0  0  0  0  0  0  0  0  0  0  0
   -2.7368    1.3625    0.0000 C   0  0  0  0  0  0  0  0  0  0  0  0
   -3.9994   -0.5232    0.0000 N   0  0  0  0  0  4  0  0  0  0  0  0
   -5.2527    0.3010    0.0000 C   0  0  0  0  0  0  0  0  0  0  0  0
   -4.0866   -2.0207    0.0000 C   0  0  0  0  0  0  0  0  0  0  0  0
    1.2751    0.6723    0.0000 C   0  0  0  0  0  0  0  0  0  0  0  0
    2.5284   -0.1519    0.0000 C   0  0  0  0  0  0  0  0  0  0  0  0
    3.8688    0.5213    0.0000 C   0  0  0  0  0  0  0  0  0  0  0  0
    3.9559    2.0188    0.0000 C   0  0  0  0  0  0  0  0  0  0  0  0
    2.7027    2.8430    0.0000 C   0  0  0  0  0  0  0  0  0  0  0  0
    1.3623    2.1698    0.0000 C   0  0  0  0  0  0  0  0  0  0  0  0
    0.6079   -1.3414    0.0000 C   0  0  0  0  0  0  0  0  0  0  0  0
    2.1054   -1.4285    0.0000 C   0  0  0  0  0  0  0  0  0  0  0  0
    2.7786   -2.7689    0.0000 C   0  0  0  0  0  0  0  0  0  0  0  0
    1.9544   -4.0222    0.0000 C   0  0  0  0  0  0  0  0  0  0  0  0
    0.4570   -3.9350    0.0000 C   0  0  0  0  0  0  0  0  0  0  0  0
   -0.2163   -2.5946    0.0000 C   0  0  0  0  0  0  0  0  0  0  0  0
  1  2  1  0
  2  3  1  0
  3  4  2  0
  3  5  1  0
  5  6  1  0
  6  7  1  0
  7  8  1  6
  7  9  1  0
  9 10  1  0
  9 11  1  0
  5 12  1  0
 12 13  2  0
 13 14  1  0
 14 15  2  0
 15 16  1  0
 16 17  2  0
  5 18  1  0
 18 19  2  0
 19 20  1  0
 20 21  2  0
 21 22  1  0
 22 23  2  0
 17 12  1  0
 23 18  1  0
M  CHG  1   9   1
M  END
> <Identifier>
METHADONE

> <hERG>
1

$$$$

     RDKit          2D

 21 23  0  0  0  0  0  0  0  0999 V2000
   -5.7199   -2.5061    0.0000 C   0  0  0  0  0  0  0  0  0  0  0  0
   -4.6183   -1.4881    0.0000 N   0  0  0  0  0  4  0  0  0  0  0  0
   -4.9490   -0.0251    0.0000 C   0  0  0  0  0  0  0  0  0  0  0  0
   -3.1858   -1.9332    0.0000 C   0  0  0  0  0  0  0  0  0  0  0  0
   -2.0841   -0.9152    0.0000 C   0  0  0  0  0  0  0  0  0  0  0  0
   -0.6517   -1.3602    0.0000 C   0  0  0  0  0  0  0  0  0  0  0  0
    0.4500   -0.3422    0.0000 C   0  0  0  0  0  0  0  0  0  0  0  0
    1.8452   -0.8931    0.0000 C   0  0  0  0  0  0  0  0  0  0  0  0
    1.8421   -2.3931    0.0000 C   0  0  0  0  0  0  0  0  0  0  0  0
    3.1396   -3.1457    0.0000 C   0  0  0  0  0  0  0  0  0  0  0  0
    4.4402   -2.3984    0.0000 C   0  0  0  0  0  0  0  0  0  0  0  0
    4.4432   -0.8984    0.0000 C   0  0  0  0  0  0  0  0  0  0  0  0
    3.1457   -0.1457    0.0000 C   0  0  0  0  0  0  0  0  0  0  0  0
    3.3723    1.3370    0.0000 C   0  0  0  0  0  0  0  0  0  0  0  0
    2.3543    2.4387    0.0000 C   0  0  0  0  0  0  0  0  0  0  0  0
    0.8583    2.3297    0.0000 C   0  0  0  0  0  0  0  0  0  0  0  0
    0.2102    3.6824    0.0000 C   0  0  0  0  0  0  0  0  0  0  0  0
   -1.2854    3.7976    0.0000 C   0  0  0  0  0  0  0  0  0  0  0  0
   -2.1329    2.5600    0.0000 C   0  0  0  0  0  0  0  0  0  0  0  0
   -1.4848    1.2072    0.0000 C   0  0  0  0  0  0  0  0  0  0  0  0
    0.0108    1.0920    0.0000 C   0  0  0  0  0  0  0  0  0  0  0  0
  1  2  1  0
  2  3  1  0
  2  4  1  0
  4  5  1  0
  5  6  1  0
  6  7  2  0
  7  8  1  0
  8  9  2  0
  9 10  1  0
 10 11  2  0
 11 12  1  0
 12 13  2  0
 13 14  1  0
 14 15  1  0
 15 16  1  0
 16 17  2  0
 17 18  1  0
 18 19  2  0
 19 20  1  0
 20 21  2  0
 21  7  1  0
 13  8  1  0
 21 16  1  0
M  CHG  1   2   1
M  END
> <Identifier>
AMITRIPTYLINE

> <hERG>
1

$$$$

     RDKit          2D

 36 39  0  0  0  0  0  0  0  0999 V2000
   10.5136   -3.1091    0.0000 C   0  0  0  0  0  0  0  0  0  0  0  0
   10.0628   -1.6785    0.0000 O   0  0  0  0  0  0  0  0  0  0  0  0
    8.5985   -1.3535    0.0000 C   0  0  0  0  0  0  0  0  0  0  0  0
    7.5849   -2.4593    0.0000 C   0  0  0  0  0  0  0  0  0  0  0  0
    6.1205   -2.1343    0.0000 C   0  0  0  0  0  0  0  0  0  0  0  0
    5.6697   -0.7037    0.0000 C   0  0  0  0  0  0  0  0  0  0  0  0
    4.2053   -0.3787    0.0000 C   0  0  0  0  0  0  0  0  0  0  0  0
    3.7545    1.0519    0.0000 C   0  0  0  0  0  0  0  0  0  0  0  0
    4.7681    2.1577    0.0000 O   0  0  0  0  0  0  0  0  0  0  0  0
    2.2902    1.3769    0.0000 N   0  0  0  0  0  0  0  0  0  0  0  0
    1.8394    2.8076    0.0000 C   0  0  0  0  0  0  0  0  0  0  0  0
    0.3750    3.1325    0.0000 C   0  0  0  0  0  0  0  0  0  0  0  0
   -0.0758    4.5632    0.0000 C   0  0  0  0  0  0  0  0  0  0  0  0
   -1.5402    4.8881    0.0000 C   0  0  0  0  0  0  0  0  0  0  0  0
   -2.5538    3.7824    0.0000 C   0  0  0  0  0  0  0  0  0  0  0  0
   -2.1030    2.3517    0.0000 C   0  0  0  0  0  0  0  0  0  0  0  0
   -0.6386    2.0268    0.0000 C   0  0  0  0  0  0  0  0  0  0  0  0
   -0.1878    0.5961    0.0000 C   0  0  0  0  0  0  0  0  0  0  0  0
    1.2766    0.2712    0.0000 C   0  0  0  0  0  0  0  0  0  0  0  0
    1.7273   -1.1595    0.0000 C   0  0  0  0  0  0  0  0  0  0  0  0
    0.7137   -2.2652    0.0000 C   0  0  0  0  0  0  0  0  0  0  0  0
   -0.7506   -1.9403    0.0000 C   0  0  0  0  0  0  0  0  0  0  0  0
   -1.2014   -0.5096    0.0000 C   0  0  0  0  0  0  0  0  0  0  0  0
   -2.6658   -0.1847    0.0000 C   0  0  0  0  0  0  0  0  0  0  0  0
   -3.1166    1.2460    0.0000 O   0  0  0  0  0  0  0  0  0  0  0  0
   -3.6794   -1.2904    0.0000 N   0  0  0  0  0  0  0  0  0  0  0  0
   -5.1438   -0.9655    0.0000 C   0  0  0  0  0  0  0  0  0  0  0  0
   -6.1574   -2.0712    0.0000 C   0  0  0  0  0  0  0  0  0  0  0  0
   -7.6218   -1.7462    0.0000 C   0  0  0  0  0  0  0  0  0  0  0  0
   -8.6354   -2.8520    0.0000 C   0  0  0  0  0  0  0  0  0  0  0  0
  -10.0997   -2.5270    0.0000 C   0  0  0  0  0  0  0  0  0  0  0  0
  -10.5505   -1.0964    0.0000 C   0  0  0  0  0  0  0  0  0  0  0  0
   -9.5369    0.0094    0.0000 N   0  0  0  0  0  0  0  0  0  0  0  0
   -8.0725   -0.3156    0.0000 C   0  0  0  0  0  0  0  0  0  0  0  0
    6.6833    0.4021    0.0000 C   0  0  0  0  0  0  0  0  0  0  0  0
    8.1477    0.0771    0.0000 C   0  0  0  0  0  0  0  0  0  0  0  0
  1  2  1  0
  2  3  1  0
  3  4  2  0
  4  5  1  0
  5  6  2  0
  6  7  1  0
  7  8  1  0
  8  9  2  0
  8 10  1  0
 10 11  1  0
 11 12  1  0
 12 13  2  0
 13 14  1  0
 14 15  2  0
 15 16  1  0
 16 17  2  0
 17 18  1  0
 18 19  2  0
 19 20  1  0
 20 21  2  0
 21 22  1  0
 22 23  2  0
 23 24  1  0
 24 25  2  0
 24 26  1  0
 26 27  1  0
 27 28  1  0
 28 29  1  0
 29 30  2  0
 30 31  1  0
 31 32  2  0
 32 33  1  0
 33 34  2  0
  6 35  1  0
 35 36  2  0
 36  3  1  0
 17 12  1  0
 23 18  1  0
 34 29  1  0
M  END
> <Identifier>
AVE0118

> <hERG>
1

$$$$

     RDKit          2D

 26 28  0  0  0  0  0  0  0  0999 V2000
    0.7470   -5.9541    0.0000 C   0  0  0  0  0  0  0  0  0  0  0  0
    0.1288   -4.5874    0.0000 C   0  0  0  0  0  0  0  0  0  0  0  0
   -1.3638   -4.4394    0.0000 C   0  0  0  0  0  0  0  0  0  0  0  0
   -1.9820   -3.0726    0.0000 C   0  0  0  0  0  0  0  0  0  0  0  0
   -1.1074   -1.8540    0.0000 C   0  0  0  0  0  0  0  0  0  0  0  0
   -1.7255   -0.4872    0.0000 C   0  0  0  0  0  0  0  0  0  0  0  0
   -3.1946   -0.1840    0.0000 C   0  0  0  0  0  0  0  0  0  0  0  0
   -3.3601    1.3069    0.0000 C   0  0  0  0  0  0  0  0  0  0  0  0
   -4.6635    2.0492    0.0000 C   0  0  0  0  0  0  0  0  0  0  0  0
   -5.9669    2.7916    0.0000 F   0  0  0  0  0  0  0  0  0  0  0  0
   -3.9211    3.3527    0.0000 F   0  0  0  0  0  0  0  0  0  0  0  0
   -5.4059    0.7458    0.0000 F   0  0  0  0  0  0  0  0  0  0  0  0
   -1.9934    1.9250    0.0000 N   0  0  0  0  0  0  0  0  0  0  0  0
   -0.9832    0.8162    0.0000 N   0  0  0  0  0  0  0  0  0  0  0  0
    0.5077    0.9817    0.0000 C   0  0  0  0  0  0  0  0  0  0  0  0
    1.3965   -0.2266    0.0000 C   0  0  0  0  0  0  0  0  0  0  0  0
    2.8873   -0.0611    0.0000 C   0  0  0  0  0  0  0  0  0  0  0  0
    3.4894    1.3128    0.0000 C   0  0  0  0  0  0  0  0  0  0  0  0
    4.9802    1.4783    0.0000 S   0  0  0  0  0  0  0  0  0  0  0  0
    6.4710    1.6438    0.0000 N   0  0  0  0  0  0  0  0  0  0  0  0
    5.1457   -0.0125    0.0000 O   0  0  0  0  0  0  0  0  0  0  0  0
    4.8147    2.9691    0.0000 O   0  0  0  0  0  0  0  0  0  0  0  0
    2.6006    2.5211    0.0000 C   0  0  0  0  0  0  0  0  0  0  0  0
    1.1098    2.3556    0.0000 C   0  0  0  0  0  0  0  0  0  0  0  0
    0.3853   -2.0020    0.0000 C   0  0  0  0  0  0  0  0  0  0  0  0
    1.0034   -3.3687    0.0000 C   0  0  0  0  0  0  0  0  0  0  0  0
  1  2  1  0
  2  3  2  0
  3  4  1  0
  4  5  2  0
  5  6  1  0
  6  7  2  0
  7  8  1  0
  8  9  1  0
  9 10  1  0
  9 11  1  0
  9 12  1  0
  8 13  2  0
 13 14  1  0
 14 15  1  0
 15 16  2  0
 16 17  1  0
 17 18  2  0
 18 19  1  0
 19 20  1  0
 19 21  2  0
 19 22  2  0
 18 23  1  0
 23 24  2  0
  5 25  1  0
 25 26  2  0
 26  2  1  0
 14  6  1  0
 24 15  1  0
M  END
> <Identifier>
CELECOXIB

> <hERG>
1

$$$$

     RDKit          2D

 20 20  0  0  0  0  0  0  0  0999 V2000
   -7.7953   -2.2472    0.0000 N   0  0  0  0  0  0  0  0  0  0  0  0
   -6.8346   -1.0952    0.0000 C   0  0  0  0  0  0  0  0  0  0  0  0
   -7.3519    0.3127    0.0000 N   0  0  0  0  0  0  0  0  0  0  0  0
   -5.3566   -1.3512    0.0000 N   0  0  0  0  0  4  0  0  0  0  0  0
   -4.3959   -0.1992    0.0000 C   0  0  0  0  0  0  0  0  0  0  0  0
   -2.8992   -0.2993    0.0000 N   0  0  0  0  0  0  0  0  0  0  0  0
   -2.3416    1.0932    0.0000 C   0  0  0  0  0  0  0  0  0  0  0  0
   -0.8872    1.4605    0.0000 C   0  0  0  0  0  0  0  0  0  0  0  0
    0.1580    0.3846    0.0000 S   0  0  0  0  0  0  0  0  0  0  0  0
    1.6124    0.7519    0.0000 C   0  0  0  0  0  0  0  0  0  0  0  0
    2.6576   -0.3239    0.0000 C   0  0  0  0  0  0  0  0  0  0  0  0
    4.1120    0.0434    0.0000 C   0  0  0  0  0  0  0  0  0  0  0  0
    4.5210    1.4865    0.0000 N   0  0  0  0  0  0  0  0  0  0  0  0
    5.1572   -1.0324    0.0000 N   0  0  0  0  0  4  0  0  0  0  0  0
    6.6116   -0.6651    0.0000 S   0  0  0  0  0  0  0  0  0  0  0  0
    8.0659   -0.2978    0.0000 N   0  0  0  0  0  0  0  0  0  0  0  0
    6.2443    0.7892    0.0000 O   0  0  0  0  0  0  0  0  0  0  0  0
    6.9789   -2.1195    0.0000 O   0  0  0  0  0  0  0  0  0  0  0  0
   -3.4935    2.0538    0.0000 C   0  0  0  0  0  0  0  0  0  0  0  0
   -4.7632    1.2551    0.0000 S   0  0  0  0  0  0  0  0  0  0  0  0
  1  2  1  0
  2  3  1  0
  2  4  2  0
  4  5  1  0
  5  6  2  0
  6  7  1  0
  7  8  1  0
  8  9  1  0
  9 10  1  0
 10 11  1  0
 11 12  1  0
 12 13  1  0
 12 14  2  0
 14 15  1  0
 15 16  1  0
 15 17  2  0
 15 18  2  0
  7 19  2  0
 19 20  1  0
 20  5  1  0
M  CHG  2   4   1  14   1
M  END
> <Identifier>
FAMOTIDINE

> <hERG>
1

$$$$

     RDKit          2D

 27 28  0  0  0  0  0  0  0  0999 V2000
   -2.3140   -3.3582    0.0000 C   0  0  0  0  0  0  0  0  0  0  0  0
   -1.6379   -2.0193    0.0000 N   0  0  0  0  0  0  0  0  0  0  0  0
   -2.4593   -0.7642    0.0000 C   0  0  0  0  0  0  0  0  0  0  0  0
   -1.7832    0.5748    0.0000 C   0  0  0  0  0  0  0  0  0  0  0  0
   -0.2855    0.6586    0.0000 C   0  0  0  0  0  0  0  0  0  0  0  0
    0.3907    1.9976    0.0000 C   0  0  0  0  0  0  0  0  0  0  0  0
    1.8883    2.0815    0.0000 O   0  0  0  0  0  0  0  0  0  0  0  0
    2.7098    0.8264    0.0000 C   0  0  0  0  0  0  0  0  0  0  0  0
    4.2075    0.9103    0.0000 C   0  0  0  0  0  0  0  0  0  0  0  0
    5.0289   -0.3448    0.0000 C   0  0  0  0  0  0  0  0  0  0  0  0
    6.5266   -0.2609    0.0000 C   0  0  0  0  0  0  0  0  0  0  0  0
    8.0242   -0.1770    0.0000 F   0  0  0  0  0  0  0  0  0  0  0  0
    6.6105   -1.7585    0.0000 F   0  0  0  0  0  0  0  0  0  0  0  0
    6.4427    1.2368    0.0000 F   0  0  0  0  0  0  0  0  0  0  0  0
   -0.4308    3.2526    0.0000 C   0  0  0  0  0  0  0  0  0  0  0  0
   -1.9284    3.1688    0.0000 C   0  0  0  0  0  0  0  0  0  0  0  0
   -2.6046    1.8298    0.0000 C   0  0  0  0  0  0  0  0  0  0  0  0
   -4.1023    1.7459    0.0000 O   0  0  0  0  0  0  0  0  0  0  0  0
   -4.7785    0.4070    0.0000 C   0  0  0  0  0  0  0  0  0  0  0  0
   -5.9796    1.3054    0.0000 C   0  0  0  0  0  0  0  0  0  0  0  0
   -5.8718   -0.6200    0.0000 C   0  0  0  0  0  0  0  0  0  0  0  0
   -3.9570   -0.8481    0.0000 C   0  0  0  0  0  0  0  0  0  0  0  0
   -4.6332   -2.1870    0.0000 O   0  0  0  0  0  0  0  0  0  0  0  0
   -0.1402   -1.9354    0.0000 S   0  0  0  0  0  0  0  0  0  0  0  0
    1.3575   -1.8515    0.0000 C   0  0  0  0  0  0  0  0  0  0  0  0
   -0.2241   -0.4377    0.0000 O   0  0  0  0  0  0  0  0  0  0  0  0
   -0.0563   -3.4330    0.0000 O   0  0  0  0  0  0  0  0  0  0  0  0
  1  2  1  0
  3  2  1  1
  3  4  1  0
  4  5  2  0
  5  6  1  0
  6  7  1  0
  7  8  1  0
  8  9  1  0
  9 10  1  0
 10 11  1  0
 11 12  1  0
 11 13  1  0
 11 14  1  0
  6 15  2  0
 15 16  1  0
 16 17  2  0
 17 18  1  0
 18 19  1  0
 19 20  1  0
 19 21  1  0
 19 22  1  0
 22 23  1  6
  2 24  1  0
 24 25  1  0
 24 26  2  0
 24 27  2  0
 22  3  1  0
 17  4  1  0
M  END
> <Identifier>
HMR-1556

> <hERG>
1

$$$$

     RDKit          2D

 29 32  0  0  0  0  0  0  0  0999 V2000
    4.2516   -0.3601    0.0000 C   0  0  0  0  0  0  0  0  0  0  0  0
    5.2148    0.7898    0.0000 C   0  0  0  0  0  0  0  0  0  0  0  0
    6.1779    1.9397    0.0000 C   0  0  0  0  0  0  0  0  0  0  0  0
    4.0648    1.7529    0.0000 C   0  0  0  0  0  0  0  0  0  0  0  0
    2.6558    1.2387    0.0000 N   0  0  0  0  0  0  0  0  0  0  0  0
    2.3966   -0.2388    0.0000 C   0  0  0  0  0  0  0  0  0  0  0  0
    0.9875   -0.7531    0.0000 C   0  0  0  0  0  0  0  0  0  0  0  0
   -0.1624    0.2101    0.0000 C   0  0  0  0  0  0  0  0  0  0  0  0
   -1.5715   -0.3042    0.0000 C   0  0  0  0  0  0  0  0  0  0  0  0
   -2.6462    0.7423    0.0000 C   0  0  0  0  0  0  0  0  0  0  0  0
   -2.0648    2.1250    0.0000 C   0  0  0  0  0  0  0  0  0  0  0  0
   -2.9715    3.3199    0.0000 C   0  0  0  0  0  0  0  0  0  0  0  0
   -4.4597    3.1321    0.0000 C   0  0  0  0  0  0  0  0  0  0  0  0
   -5.3665    4.3270    0.0000 F   0  0  0  0  0  0  0  0  0  0  0  0
   -5.0412    1.7493    0.0000 C   0  0  0  0  0  0  0  0  0  0  0  0
   -4.1344    0.5544    0.0000 C   0  0  0  0  0  0  0  0  0  0  0  0
   -4.9154   -0.7262    0.0000 C   0  0  0  0  0  0  0  0  0  0  0  0
   -4.4012   -2.1353    0.0000 O   0  0  0  0  0  0  0  0  0  0  0  0
   -2.9789   -2.6118    0.0000 C   0  0  0  0  0  0  0  0  0  0  0  0
   -2.9028   -4.1098    0.0000 C   0  0  0  0  0  0  0  0  0  0  0  0
   -1.5674   -4.7930    0.0000 C   0  0  0  0  0  0  0  0  0  0  0  0
   -0.3080   -3.9780    0.0000 C   0  0  0  0  0  0  0  0  0  0  0  0
   -0.3841   -2.4800    0.0000 C   0  0  0  0  0  0  0  0  0  0  0  0
   -1.7195   -1.7968    0.0000 C   0  0  0  0  0  0  0  0  0  0  0  0
    0.0968    1.6876    0.0000 C   0  0  0  0  0  0  0  0  0  0  0  0
    1.5058    2.2018    0.0000 C   0  0  0  0  0  0  0  0  0  0  0  0
    6.3647   -0.1734    0.0000 C   0  0  0  0  0  0  0  0  0  0  0  0
    7.7738    0.3409    0.0000 O   0  0  0  0  0  0  0  0  0  0  0  0
    6.1055   -1.6508    0.0000 O   0  0  0  0  0  0  0  0  0  0  0  0
  1  2  1  0
  2  3  1  0
  2  4  1  0
  4  5  1  0
  5  6  1  0
  6  7  1  0
  7  8  1  0
  8  9  2  0
  9 10  1  0
 10 11  2  0
 11 12  1  0
 12 13  2  0
 13 14  1  0
 13 15  1  0
 15 16  2  0
 16 17  1  0
 17 18  1  0
 18 19  1  0
 19 20  2  0
 20 21  1  0
 21 22  2  0
 22 23  1  0
 23 24  2  0
  8 25  1  0
 25 26  1  0
  2 27  1  0
 27 28  2  0
 27 29  1  0
 26  5  1  0
 24  9  1  0
 16 10  1  0
 24 19  1  0
M  END
> <Identifier>
HY-2901

> <hERG>
1

$$$$

     RDKit          2D

 16 17  0  0  0  0  0  0  0  0999 V2000
    4.4233    1.4703    0.0000 C   0  0  0  0  0  0  0  0  0  0  0  0
    3.1726    0.6423    0.0000 C   0  0  0  0  0  0  0  0  0  0  0  0
    3.2643   -0.8549    0.0000 C   0  0  0  0  0  0  0  0  0  0  0  0
    1.8301    1.3115    0.0000 C   0  0  0  0  0  0  0  0  0  0  0  0
    0.5794    0.4835    0.0000 N   0  0  0  0  0  0  0  0  0  0  0  0
    0.6711   -1.0137    0.0000 C   0  0  0  0  0  0  0  0  0  0  0  0
    2.0135   -1.6829    0.0000 O   0  0  0  0  0  0  0  0  0  0  0  0
   -0.5797   -1.8417    0.0000 N   0  0  0  0  0  0  0  0  0  0  0  0
   -0.4880   -3.3389    0.0000 C   0  0  0  0  0  0  0  0  0  0  0  0
   -1.9222   -1.1725    0.0000 C   0  0  0  0  0  0  0  0  0  0  0  0
   -3.1729   -2.0005    0.0000 O   0  0  0  0  0  0  0  0  0  0  0  0
   -2.0139    0.3247    0.0000 C   0  0  0  0  0  0  0  0  0  0  0  0
   -3.1878    1.2584    0.0000 N   0  0  0  0  0  0  0  0  0  0  0  0
   -2.6626    2.6634    0.0000 C   0  0  0  0  0  0  0  0  0  0  0  0
   -1.1641    2.5981    0.0000 N   0  0  0  0  0  0  0  0  0  0  0  0
   -0.7631    1.1527    0.0000 C   0  0  0  0  0  0  0  0  0  0  0  0
  1  2  1  0
  2  3  1  0
  2  4  1  0
  4  5  1  0
  5  6  1  0
  6  7  2  0
  6  8  1  0
  8  9  1  0
  8 10  1  0
 10 11  2  0
 10 12  1  0
 12 13  1  0
 13 14  1  0
 14 15  2  0
 15 16  1  0
 16  5  1  0
 16 12  2  0
M  END
> <Identifier>
ISOBUTYLMETHYLXANTHINE

> <hERG>
1

$$$$

     RDKit          2D

 13 13  0  0  0  0  0  0  0  0999 V2000
    0.0845   -2.2712    0.0000 C   0  0  0  0  0  0  0  0  0  0  0  0
   -1.0096   -1.2451    0.0000 C   0  0  0  0  0  0  0  0  0  0  0  0
   -2.4453   -1.6795    0.0000 C   0  0  0  0  0  0  0  0  0  0  0  0
   -3.5394   -0.6534    0.0000 C   0  0  0  0  0  0  0  0  0  0  0  0
   -3.1978    0.8072    0.0000 C   0  0  0  0  0  0  0  0  0  0  0  0
   -1.7620    1.2416    0.0000 C   0  0  0  0  0  0  0  0  0  0  0  0
   -1.4204    2.7022    0.0000 C   0  0  0  0  0  0  0  0  0  0  0  0
   -0.6680    0.2155    0.0000 C   0  0  0  0  0  0  0  0  0  0  0  0
    0.7678    0.6499    0.0000 O   0  0  0  0  0  0  0  0  0  0  0  0
    1.8618   -0.3762    0.0000 C   0  0  0  0  0  0  0  0  0  0  0  0
    3.2975    0.0582    0.0000 C   0  0  0  0  0  0  0  0  0  0  0  0
    4.3916   -0.9679    0.0000 C   0  0  0  0  0  0  0  0  0  0  0  0
    3.6392    1.5188    0.0000 N   0  0  0  0  0  4  0  0  0  0  0  0
  1  2  1  0
  2  3  2  0
  3  4  1  0
  4  5  2  0
  5  6  1  0
  6  7  1  0
  6  8  2  0
  8  9  1  0
  9 10  1  0
 10 11  1  0
 11 12  1  6
 11 13  1  0
  8  2  1  0
M  CHG  1  13   1
M  END
> <Identifier>
MEXILETINE

> <hERG>
1

$$$$

     RDKit          2D

 31 33  0  0  0  0  0  0  0  0999 V2000
   -2.6436    3.4717    0.0000 C   0  0  0  0  0  0  0  0  0  0  0  0
   -1.9519    2.1407    0.0000 N   0  0  0  0  0  0  0  0  0  0  0  0
   -0.4533    2.0743    0.0000 C   0  0  0  0  0  0  0  0  0  0  0  0
    0.3535    3.3389    0.0000 O   0  0  0  0  0  0  0  0  0  0  0  0
    0.2384    0.7433    0.0000 C   0  0  0  0  0  0  0  0  0  0  0  0
    1.7370    0.6769    0.0000 C   0  0  0  0  0  0  0  0  0  0  0  0
    2.4287   -0.6541    0.0000 C   0  0  0  0  0  0  0  0  0  0  0  0
    3.9272   -0.7205    0.0000 C   0  0  0  0  0  0  0  0  0  0  0  0
    4.7340    0.5441    0.0000 C   0  0  0  0  0  0  0  0  0  0  0  0
    6.2325    0.4777    0.0000 C   0  0  0  0  0  0  0  0  0  0  0  0
    6.9243   -0.8533    0.0000 N   0  0  0  0  0  0  0  0  0  0  0  0
    8.4228   -0.9197    0.0000 S   0  0  0  0  0  0  0  0  0  0  0  0
    9.9214   -0.9861    0.0000 C   0  0  0  0  0  0  0  0  0  0  0  0
    8.4892    0.5788    0.0000 O   0  0  0  0  0  0  0  0  0  0  0  0
    8.3564   -2.4182    0.0000 O   0  0  0  0  0  0  0  0  0  0  0  0
    4.0423    1.8751    0.0000 C   0  0  0  0  0  0  0  0  0  0  0  0
    2.5437    1.9415    0.0000 C   0  0  0  0  0  0  0  0  0  0  0  0
   -2.7586    0.8761    0.0000 C   0  0  0  0  0  0  0  0  0  0  0  0
   -2.0669   -0.4548    0.0000 C   0  0  0  0  0  0  0  0  0  0  0  0
   -2.8737   -1.7194    0.0000 N   0  0  0  0  0  0  0  0  0  0  0  0
   -2.3248   -3.1154    0.0000 C   0  0  0  0  0  0  0  0  0  0  0  0
   -3.4829   -4.0687    0.0000 C   0  0  0  0  0  0  0  0  0  0  0  0
   -4.7474   -3.2620    0.0000 C   0  0  0  0  0  0  0  0  0  0  0  0
   -6.1434   -3.8108    0.0000 O   0  0  0  0  0  0  0  0  0  0  0  0
   -4.3709   -1.8100    0.0000 C   0  0  0  0  0  0  0  0  0  0  0  0
   -4.2572    0.9426    0.0000 C   0  0  0  0  0  0  0  0  0  0  0  0
   -4.9489    2.2735    0.0000 C   0  0  0  0  0  0  0  0  0  0  0  0
   -6.4474    2.3399    0.0000 C   0  0  0  0  0  0  0  0  0  0  0  0
   -7.2542    1.0754    0.0000 C   0  0  0  0  0  0  0  0  0  0  0  0
   -6.5625   -0.2556    0.0000 C   0  0  0  0  0  0  0  0  0  0  0  0
   -5.0639   -0.3220    0.0000 C   0  0  0  0  0  0  0  0  0  0  0  0
  1  2  1  0
  2  3  1  0
  3  4  2  0
  3  5  1  0
  5  6  1  0
  6  7  2  0
  7  8  1  0
  8  9  2  0
  9 10  1  0
 10 11  1  0
 11 12  1  0
 12 13  1  0
 12 14  2  0
 12 15  2  0
  9 16  1  0
 16 17  2  0
  2 18  1  0
 18 19  1  1
 19 20  1  0
 20 21  1  0
 21 22  1  0
 22 23  1  0
 23 24  1  1
 23 25  1  0
 18 26  1  0
 26 27  2  0
 27 28  1  0
 28 29  2  0
 29 30  1  0
 30 31  2  0
 17  6  1  0
 25 20  1  0
 31 26  1  0
M  END
> <Identifier>
N-{(1S)-2-[(3S)-3-HYDROXYPYRROLIDIN-1-YL]-1-PHENYLETHYL}-N-METHYL-2-(4-{[(METHYLSULFONYL)AMINO]METHYL}PHENYL)ACETAMIDE

> <hERG>
1

$$$$

     RDKit          2D

 27 29  0  0  0  0  0  0  0  0999 V2000
   -5.4682   -2.7279    0.0000 C   0  0  0  0  0  0  0  0  0  0  0  0
   -4.8755   -1.3500    0.0000 C   0  0  0  0  0  0  0  0  0  0  0  0
   -3.3858   -1.1744    0.0000 C   0  0  0  0  0  0  0  0  0  0  0  0
   -2.7931    0.2036    0.0000 O   0  0  0  0  0  0  0  0  0  0  0  0
   -1.3034    0.3792    0.0000 C   0  0  0  0  0  0  0  0  0  0  0  0
    0.1863    0.5549    0.0000 C   0  0  0  0  0  0  0  0  0  0  0  0
    0.7790    1.9328    0.0000 O   0  0  0  0  0  0  0  0  0  0  0  0
    1.0833   -0.6474    0.0000 O   0  0  0  0  0  0  0  0  0  0  0  0
    2.5729   -0.4717    0.0000 C   0  0  0  0  0  0  0  0  0  0  0  0
    3.4699   -1.6740    0.0000 C   0  0  0  0  0  0  0  0  0  0  0  0
    4.9596   -1.4984    0.0000 C   0  0  0  0  0  0  0  0  0  0  0  0
    5.5523   -0.1204    0.0000 N   0  0  0  0  0  0  0  0  0  0  0  0
    7.0420    0.0552    0.0000 C   0  0  0  0  0  0  0  0  0  0  0  0
    4.6553    1.0818    0.0000 C   0  0  0  0  0  0  0  0  0  0  0  0
    3.1657    0.9062    0.0000 C   0  0  0  0  0  0  0  0  0  0  0  0
   -1.1277   -1.1105    0.0000 C   0  0  0  0  0  0  0  0  0  0  0  0
   -2.3300   -2.0074    0.0000 C   0  0  0  0  0  0  0  0  0  0  0  0
   -2.1543   -3.4971    0.0000 C   0  0  0  0  0  0  0  0  0  0  0  0
   -0.7764   -4.0898    0.0000 C   0  0  0  0  0  0  0  0  0  0  0  0
    0.4259   -3.1929    0.0000 C   0  0  0  0  0  0  0  0  0  0  0  0
    0.2502   -1.7032    0.0000 C   0  0  0  0  0  0  0  0  0  0  0  0
   -1.4790    1.8689    0.0000 C   0  0  0  0  0  0  0  0  0  0  0  0
   -0.2768    2.7659    0.0000 C   0  0  0  0  0  0  0  0  0  0  0  0
   -0.4524    4.2555    0.0000 C   0  0  0  0  0  0  0  0  0  0  0  0
   -1.8303    4.8483    0.0000 C   0  0  0  0  0  0  0  0  0  0  0  0
   -3.0326    3.9513    0.0000 C   0  0  0  0  0  0  0  0  0  0  0  0
   -2.8570    2.4616    0.0000 C   0  0  0  0  0  0  0  0  0  0  0  0
  1  2  1  0
  2  3  1  0
  3  4  1  0
  4  5  1  0
  5  6  1  0
  6  7  2  0
  6  8  1  0
  8  9  1  0
  9 10  1  0
 10 11  1  0
 11 12  1  0
 12 13  1  0
 12 14  1  0
 14 15  1  0
  5 16  1  0
 16 17  2  0
 17 18  1  0
 18 19  2  0
 19 20  1  0
 20 21  2  0
  5 22  1  0
 22 23  2  0
 23 24  1  0
 24 25  2  0
 25 26  1  0
 26 27  2  0
 15  9  1  0
 21 16  1  0
 27 22  1  0
M  END
> <Identifier>
PROPIVERINE

> <hERG>
1

$$$$

     RDKit          2D

 19 20  0  0  0  0  0  0  0  0999 V2000
   -7.5601    0.7524    0.0000 C   0  0  0  0  0  0  0  0  0  0  0  0
   -6.3021   -0.0646    0.0000 C   0  0  0  0  0  0  0  0  0  0  0  0
   -6.3807   -1.5625    0.0000 C   0  0  0  0  0  0  0  0  0  0  0  0
   -4.9656    0.6163    0.0000 N   0  0  0  0  0  4  0  0  0  0  0  0
   -3.7076   -0.2007    0.0000 C   0  0  0  0  0  0  0  0  0  0  0  0
   -2.3711    0.4802    0.0000 C   0  0  0  0  0  0  0  0  0  0  0  0
   -2.2925    1.9781    0.0000 O   0  0  0  0  0  0  0  0  0  0  0  0
   -1.1131   -0.3369    0.0000 C   0  0  0  0  0  0  0  0  0  0  0  0
    0.2234    0.3440    0.0000 O   0  0  0  0  0  0  0  0  0  0  0  0
    1.4814   -0.4730    0.0000 C   0  0  0  0  0  0  0  0  0  0  0  0
    1.4028   -1.9709    0.0000 C   0  0  0  0  0  0  0  0  0  0  0  0
    2.6608   -2.7880    0.0000 C   0  0  0  0  0  0  0  0  0  0  0  0
    3.9973   -2.1071    0.0000 C   0  0  0  0  0  0  0  0  0  0  0  0
    4.0759   -0.6091    0.0000 C   0  0  0  0  0  0  0  0  0  0  0  0
    5.4125    0.0718    0.0000 C   0  0  0  0  0  0  0  0  0  0  0  0
    5.4911    1.5697    0.0000 C   0  0  0  0  0  0  0  0  0  0  0  0
    4.2331    2.3867    0.0000 C   0  0  0  0  0  0  0  0  0  0  0  0
    2.8966    1.7058    0.0000 C   0  0  0  0  0  0  0  0  0  0  0  0
    2.8180    0.2079    0.0000 C   0  0  0  0  0  0  0  0  0  0  0  0
  1  2  1  0
  2  3  1  0
  2  4  1  0
  4  5  1  0
  5  6  1  0
  6  7  1  1
  6  8  1  0
  8  9  1  0
  9 10  1  0
 10 11  2  0
 11 12  1  0
 12 13  2  0
 13 14  1  0
 14 15  2  0
 15 16  1  0
 16 17  2  0
 17 18  1  0
 18 19  2  0
 19 10  1  0
 19 14  1  0
M  CHG  1   4   1
M  END
> <Identifier>
PROPRANOLOL

> <hERG>
1

$$$$

     RDKit          2D

 31 35  0  0  0  0  0  0  0  0999 V2000
   -8.1566    1.9197    0.0000 O   0  0  0  0  0  0  0  0  0  0  0  0
   -8.2977    0.4264    0.0000 C   0  0  0  0  0  0  0  0  0  0  0  0
   -9.5888   -0.3372    0.0000 N   0  0  0  0  0  0  0  0  0  0  0  0
   -9.2616   -1.8011    0.0000 C   0  0  0  0  0  0  0  0  0  0  0  0
   -7.7682   -1.9422    0.0000 C   0  0  0  0  0  0  0  0  0  0  0  0
   -7.1725   -0.5655    0.0000 N   0  0  0  0  0  0  0  0  0  0  0  0
   -5.7087   -0.2383    0.0000 C   0  0  0  0  0  0  0  0  0  0  0  0
   -4.6933   -1.3424    0.0000 C   0  0  0  0  0  0  0  0  0  0  0  0
   -3.2295   -1.0151    0.0000 N   0  0  0  0  0  4  0  0  0  0  0  0
   -2.2141   -2.1192    0.0000 C   0  0  0  0  0  0  0  0  0  0  0  0
   -0.7502   -1.7920    0.0000 C   0  0  0  0  0  0  0  0  0  0  0  0
   -0.3017   -0.3606    0.0000 C   0  0  0  0  0  0  0  0  0  0  0  0
    1.1621   -0.0333    0.0000 C   0  0  0  0  0  0  0  0  0  0  0  0
    2.2873   -1.0252    0.0000 C   0  0  0  0  0  0  0  0  0  0  0  0
    3.5784   -0.2616    0.0000 N   0  0  0  0  0  0  0  0  0  0  0  0
    4.9551   -0.8573    0.0000 C   0  0  0  0  0  0  0  0  0  0  0  0
    5.1275   -2.3474    0.0000 C   0  0  0  0  0  0  0  0  0  0  0  0
    6.5042   -2.9430    0.0000 C   0  0  0  0  0  0  0  0  0  0  0  0
    7.7084   -2.0487    0.0000 C   0  0  0  0  0  0  0  0  0  0  0  0
    9.0850   -2.6443    0.0000 F   0  0  0  0  0  0  0  0  0  0  0  0
    7.5359   -0.5586    0.0000 C   0  0  0  0  0  0  0  0  0  0  0  0
    6.1593    0.0371    0.0000 C   0  0  0  0  0  0  0  0  0  0  0  0
    3.2512    1.2022    0.0000 C   0  0  0  0  0  0  0  0  0  0  0  0
    4.1200    2.4249    0.0000 C   0  0  0  0  0  0  0  0  0  0  0  0
    3.4956    3.7888    0.0000 C   0  0  0  0  0  0  0  0  0  0  0  0
    2.0022    3.9299    0.0000 C   0  0  0  0  0  0  0  0  0  0  0  0
    1.3777    5.2937    0.0000 Cl  0  0  0  0  0  0  0  0  0  0  0  0
    1.1333    2.7072    0.0000 C   0  0  0  0  0  0  0  0  0  0  0  0
    1.7578    1.3433    0.0000 C   0  0  0  0  0  0  0  0  0  0  0  0
   -1.3171    0.7435    0.0000 C   0  0  0  0  0  0  0  0  0  0  0  0
   -2.7809    0.4163    0.0000 C   0  0  0  0  0  0  0  0  0  0  0  0
  1  2  2  0
  2  3  1  0
  3  4  1  0
  4  5  1  0
  5  6  1  0
  6  7  1  0
  7  8  1  0
  8  9  1  0
  9 10  1  0
 10 11  1  0
 11 12  2  0
 12 13  1  0
 13 14  2  0
 14 15  1  0
 15 16  1  0
 16 17  2  0
 17 18  1  0
 18 19  2  0
 19 20  1  0
 19 21  1  0
 21 22  2  0
 15 23  1  0
 23 24  2  0
 24 25  1  0
 25 26  2  0
 26 27  1  0
 26 28  1  0
 28 29  2  0
 12 30  1  0
 30 31  1  0
  6  2  1  0
 31  9  1  0
 29 13  1  0
 22 16  1  0
 29 23  1  0
M  CHG  1   9   1
M  END
> <Identifier>
SERTINDOLE2

> <hERG>
1

$$$$

     RDKit          2D

 26 30  0  0  0  0  0  0  0  0999 V2000
    0.4142    3.9292    0.0000 O   0  0  0  0  0  0  0  0  0  0  0  0
    0.3276    2.4317    0.0000 C   0  0  0  0  0  0  0  0  0  0  0  0
   -0.9348    1.6216    0.0000 N   0  0  0  0  0  0  0  0  0  0  0  0
   -2.3322    2.1667    0.0000 C   0  0  0  0  0  0  0  0  0  0  0  0
   -3.5030    1.2290    0.0000 C   0  0  0  0  0  0  0  0  0  0  0  0
   -4.9005    1.7741    0.0000 C   0  0  0  0  0  0  0  0  0  0  0  0
   -6.0713    0.8365    0.0000 C   0  0  0  0  0  0  0  0  0  0  0  0
   -5.8446   -0.6463    0.0000 C   0  0  0  0  0  0  0  0  0  0  0  0
   -4.4472   -1.1914    0.0000 C   0  0  0  0  0  0  0  0  0  0  0  0
   -3.2764   -0.2537    0.0000 C   0  0  0  0  0  0  0  0  0  0  0  0
   -0.5544    0.1706    0.0000 C   0  0  0  0  0  0  0  0  0  0  0  0
    0.9431    0.0840    0.0000 C   0  0  0  0  0  0  0  0  0  0  0  0
    1.3235   -1.3669    0.0000 C   0  0  0  0  0  0  0  0  0  0  0  0
    0.0611   -2.1771    0.0000 S   0  0  0  0  0  3  0  0  0  0  0  0
   -0.4840   -3.5745    0.0000 C   0  0  0  0  0  0  0  0  0  0  0  0
   -1.9815   -3.4879    0.0000 C   0  0  0  0  0  0  0  0  0  0  0  0
   -2.3619   -2.0370    0.0000 C   0  0  0  0  0  0  0  0  0  0  0  0
   -1.0995   -1.2268    0.0000 C   0  0  0  0  0  0  0  0  0  0  0  0
    1.4882    1.4815    0.0000 N   0  0  0  0  0  0  0  0  0  0  0  0
    2.9392    1.8619    0.0000 C   0  0  0  0  0  0  0  0  0  0  0  0
    3.9941    0.7955    0.0000 C   0  0  0  0  0  0  0  0  0  0  0  0
    3.5981   -0.6513    0.0000 C   0  0  0  0  0  0  0  0  0  0  0  0
    4.6530   -1.7176    0.0000 C   0  0  0  0  0  0  0  0  0  0  0  0
    6.1039   -1.3372    0.0000 C   0  0  0  0  0  0  0  0  0  0  0  0
    6.5000    0.1095    0.0000 C   0  0  0  0  0  0  0  0  0  0  0  0
    5.4451    1.1759    0.0000 C   0  0  0  0  0  0  0  0  0  0  0  0
  1  2  2  0
  2  3  1  0
  3  4  1  0
  4  5  1  0
  5  6  2  0
  6  7  1  0
  7  8  2  0
  8  9  1  0
  9 10  2  0
 11  3  1  1
 11 12  1  0
 12 13  1  1
 13 14  1  0
 14 15  1  0
 15 16  1  0
 16 17  1  0
 18 17  1  6
 12 19  1  0
 19 20  1  0
 20 21  1  0
 21 22  2  0
 22 23  1  0
 23 24  2  0
 24 25  1  0
 25 26  2  0
 19  2  1  0
 26 21  1  0
 10  5  1  0
 18 11  1  0
 18 14  1  0
M  CHG  1  14   1
M  END
> <Identifier>
TRIMETHAPHAN

> <hERG>
1

$$$$

     RDKit          2D

 31 34  0  0  0  0  0  0  0  0999 V2000
    6.0367   -1.2779    0.0000 C   0  0  0  0  0  0  0  0  0  0  0  0
    6.7459    0.0439    0.0000 C   0  0  0  0  0  0  0  0  0  0  0  0
    8.2452    0.0906    0.0000 N   0  0  0  0  0  0  0  0  0  0  0  0
    8.9543    1.4124    0.0000 C   0  0  0  0  0  0  0  0  0  0  0  0
    8.1642    2.6875    0.0000 C   0  0  0  0  0  0  0  0  0  0  0  0
    6.6649    2.6407    0.0000 C   0  0  0  0  0  0  0  0  0  0  0  0
    5.9558    1.3189    0.0000 C   0  0  0  0  0  0  0  0  0  0  0  0
    4.4565    1.2722    0.0000 C   0  0  0  0  0  0  0  0  0  0  0  0
    3.6664    2.5472    0.0000 O   0  0  0  0  0  0  0  0  0  0  0  0
    3.7474   -0.0496    0.0000 N   0  0  0  0  0  0  0  0  0  0  0  0
    4.3999   -1.4002    0.0000 C   0  0  0  0  0  0  0  0  0  0  0  0
    3.3170   -2.4382    0.0000 C   0  0  0  0  0  0  0  0  0  0  0  0
    1.9952   -1.7290    0.0000 C   0  0  0  0  0  0  0  0  0  0  0  0
    0.6445   -2.3815    0.0000 N   0  0  0  0  0  4  0  0  0  0  0  0
   -0.5959   -1.5381    0.0000 C   0  0  0  0  0  0  0  0  0  0  0  0
   -1.9465   -2.1906    0.0000 C   0  0  0  0  0  0  0  0  0  0  0  0
   -2.2125   -3.6668    0.0000 C   0  0  0  0  0  0  0  0  0  0  0  0
   -3.6987   -3.8700    0.0000 N   0  0  0  0  0  0  0  0  0  0  0  0
   -4.3512   -2.5194    0.0000 C   0  0  0  0  0  0  0  0  0  0  0  0
   -3.2683   -1.4814    0.0000 N   0  0  0  0  0  0  0  0  0  0  0  0
   -3.4715    0.0047    0.0000 C   0  0  0  0  0  0  0  0  0  0  0  0
   -4.8601    0.5718    0.0000 C   0  0  0  0  0  0  0  0  0  0  0  0
   -5.0634    2.0580    0.0000 C   0  0  0  0  0  0  0  0  0  0  0  0
   -6.4520    2.6251    0.0000 C   0  0  0  0  0  0  0  0  0  0  0  0
   -7.6375    1.7061    0.0000 C   0  0  0  0  0  0  0  0  0  0  0  0
   -9.0261    2.2732    0.0000 C   0  0  0  0  0  0  0  0  0  0  0  0
  -10.4148    2.8403    0.0000 N   0  0  0  0  0  0  0  0  0  0  0  0
   -7.4343    0.2199    0.0000 C   0  0  0  0  0  0  0  0  0  0  0  0
   -6.0456   -0.3472    0.0000 C   0  0  0  0  0  0  0  0  0  0  0  0
    2.2612   -0.2528    0.0000 C   0  0  0  0  0  0  0  0  0  0  0  0
    1.2232    0.8301    0.0000 O   0  0  0  0  0  0  0  0  0  0  0  0
  1  2  1  0
  2  3  2  0
  3  4  1  0
  4  5  2  0
  5  6  1  0
  6  7  2  0
  7  8  1  0
  8  9  2  0
  8 10  1  0
 10 11  1  0
 11 12  1  0
 12 13  1  0
 13 14  1  6
 14 15  1  0
 15 16  1  0
 16 17  2  0
 17 18  1  0
 18 19  2  0
 19 20  1  0
 20 21  1  0
 21 22  1  0
 22 23  2  0
 23 24  1  0
 24 25  2  0
 25 26  1  0
 26 27  3  0
 25 28  1  0
 28 29  2  0
 13 30  1  0
 30 31  2  0
  7  2  1  0
 30 10  1  0
 20 16  1  0
 29 22  1  0
M  CHG  1  14   1
M  END
> <Identifier>
WOMBAT25

> <hERG>
1

$$$$

     RDKit          2D

 37 41  0  0  0  0  0  0  0  0999 V2000
    1.5199    4.6301    0.0000 C   0  0  0  0  0  0  0  0  0  0  0  0
    0.1785    3.9588    0.0000 O   0  0  0  0  0  0  0  0  0  0  0  0
    0.0891    2.4615    0.0000 C   0  0  0  0  0  0  0  0  0  0  0  0
   -1.2522    1.7902    0.0000 C   0  0  0  0  0  0  0  0  0  0  0  0
   -1.3416    0.2928    0.0000 C   0  0  0  0  0  0  0  0  0  0  0  0
   -2.6830   -0.3785    0.0000 C   0  0  0  0  0  0  0  0  0  0  0  0
   -3.9350    0.4475    0.0000 O   0  0  0  0  0  0  0  0  0  0  0  0
   -5.2764   -0.2238    0.0000 C   0  0  0  0  0  0  0  0  0  0  0  0
   -5.3657   -1.7211    0.0000 C   0  0  0  0  0  0  0  0  0  0  0  0
   -6.7071   -2.3924    0.0000 C   0  0  0  0  0  0  0  0  0  0  0  0
   -7.9592   -1.5664    0.0000 C   0  0  0  0  0  0  0  0  0  0  0  0
   -9.4109   -1.9442    0.0000 N   0  0  0  0  0  0  0  0  0  0  0  0
  -10.2187   -0.6803    0.0000 C   0  0  0  0  0  0  0  0  0  0  0  0
  -11.7161   -0.5910    0.0000 C   0  0  0  0  0  0  0  0  0  0  0  0
   -9.2663    0.4786    0.0000 C   0  0  0  0  0  0  0  0  0  0  0  0
   -9.6441    1.9302    0.0000 C   0  0  0  0  0  0  0  0  0  0  0  0
   -7.8699   -0.0691    0.0000 C   0  0  0  0  0  0  0  0  0  0  0  0
   -6.5285    0.6023    0.0000 C   0  0  0  0  0  0  0  0  0  0  0  0
   -2.7723   -1.8758    0.0000 N   0  0  0  0  0  0  0  0  0  0  0  0
   -1.5202   -2.7018    0.0000 C   0  0  0  0  0  0  0  0  0  0  0  0
   -0.1788   -2.0305    0.0000 N   0  0  0  0  0  0  0  0  0  0  0  0
   -0.0895   -0.5332    0.0000 C   0  0  0  0  0  0  0  0  0  0  0  0
    1.2519    0.1381    0.0000 C   0  0  0  0  0  0  0  0  0  0  0  0
    1.3412    1.6355    0.0000 C   0  0  0  0  0  0  0  0  0  0  0  0
    2.6826    2.3068    0.0000 O   0  0  0  0  0  0  0  0  0  0  0  0
    3.9347    1.4808    0.0000 C   0  0  0  0  0  0  0  0  0  0  0  0
    5.2761    2.1521    0.0000 C   0  0  0  0  0  0  0  0  0  0  0  0
    6.5282    1.3261    0.0000 N   0  0  0  0  0  0  0  0  0  0  0  0
    6.4388   -0.1713    0.0000 C   0  0  0  0  0  0  0  0  0  0  0  0
    7.6909   -0.9973    0.0000 C   0  0  0  0  0  0  0  0  0  0  0  0
    9.0323   -0.3260    0.0000 N   0  0  0  0  0  0  0  0  0  0  0  0
   10.2844   -1.1520    0.0000 C   0  0  0  0  0  0  0  0  0  0  0  0
   10.1951   -2.6494    0.0000 C   0  0  0  0  0  0  0  0  0  0  0  0
   11.4471   -3.4754    0.0000 C   0  0  0  0  0  0  0  0  0  0  0  0
    8.8537   -3.3207    0.0000 O   0  0  0  0  0  0  0  0  0  0  0  0
    9.1216    1.1713    0.0000 C   0  0  0  0  0  0  0  0  0  0  0  0
    7.8695    1.9974    0.0000 C   0  0  0  0  0  0  0  0  0  0  0  0
  1  2  1  0
  2  3  1  0
  3  4  2  0
  4  5  1  0
  5  6  2  0
  6  7  1  0
  7  8  1  0
  8  9  2  0
  9 10  1  0
 10 11  2  0
 11 12  1  0
 12 13  1  0
 13 14  1  0
 13 15  2  0
 15 16  1  0
 15 17  1  0
 17 18  2  0
  6 19  1  0
 19 20  2  0
 20 21  1  0
 21 22  2  0
 22 23  1  0
 23 24  2  0
 24 25  1  0
 25 26  1  0
 26 27  1  0
 27 28  1  0
 28 29  1  0
 29 30  1  0
 30 31  1  0
 31 32  1  0
 32 33  1  0
 33 34  1  0
 33 35  2  0
 31 36  1  0
 36 37  1  0
 24  3  1  0
 37 28  1  0
 22  5  1  0
 18  8  1  0
 17 11  1  0
M  END
> <Identifier>
1-{4-[2-({4-[(2,3-DIMETHYL-1H-INDOL-5-YL)OXY]-6-METHOXYQUINAZOLIN-7-YL}OXY)ETHYL]PIPERAZIN-1-YL}PROPAN-2-ONE

> <hERG>
1

$$$$

     RDKit          2D

 22 24  0  0  0  0  0  0  0  0999 V2000
    4.4581   -1.5000    0.0000 C   0  0  0  0  0  0  0  0  0  0  0  0
    4.4581   -0.0000    0.0000 C   0  0  0  0  0  0  0  0  0  0  0  0
    4.4581    1.5000    0.0000 C   0  0  0  0  0  0  0  0  0  0  0  0
    5.9581   -0.0000    0.0000 C   0  0  0  0  0  0  0  0  0  0  0  0
    2.9581   -0.0000    0.0000 N   0  0  0  0  0  0  0  0  0  0  0  0
    2.2081   -1.2990    0.0000 C   0  0  0  0  0  0  0  0  0  0  0  0
    0.7081   -1.2990    0.0000 C   0  0  0  0  0  0  0  0  0  0  0  0
   -0.0419   -0.0000    0.0000 C   0  0  0  0  0  0  0  0  0  0  0  0
   -1.1910   -0.9642    0.0000 C   0  0  0  0  0  0  0  0  0  0  0  0
   -2.6005   -0.4512    0.0000 C   0  0  0  0  0  0  0  0  0  0  0  0
   -3.7496   -1.4153    0.0000 C   0  0  0  0  0  0  0  0  0  0  0  0
   -3.4891   -2.8925    0.0000 C   0  0  0  0  0  0  0  0  0  0  0  0
   -2.0796   -3.4056    0.0000 C   0  0  0  0  0  0  0  0  0  0  0  0
   -0.9305   -2.4414    0.0000 C   0  0  0  0  0  0  0  0  0  0  0  0
   -1.1910    0.9642    0.0000 C   0  0  0  0  0  0  0  0  0  0  0  0
   -0.9305    2.4414    0.0000 C   0  0  0  0  0  0  0  0  0  0  0  0
   -2.0796    3.4056    0.0000 C   0  0  0  0  0  0  0  0  0  0  0  0
   -3.4891    2.8925    0.0000 C   0  0  0  0  0  0  0  0  0  0  0  0
   -3.7496    1.4153    0.0000 C   0  0  0  0  0  0  0  0  0  0  0  0
   -2.6005    0.4512    0.0000 C   0  0  0  0  0  0  0  0  0  0  0  0
    0.7081    1.2990    0.0000 C   0  0  0  0  0  0  0  0  0  0  0  0
    2.2081    1.2990    0.0000 C   0  0  0  0  0  0  0  0  0  0  0  0
  1  2  1  0
  2  3  1  0
  2  4  1  0
  2  5  1  0
  5  6  1  0
  6  7  1  0
  7  8  1  0
  8  9  1  0
  9 10  2  0
 10 11  1  0
 11 12  2  0
 12 13  1  0
 13 14  2  0
  8 15  1  0
 15 16  2  0
 16 17  1  0
 17 18  2  0
 18 19  1  0
 19 20  2  0
  8 21  1  0
 21 22  1  0
 22  5  1  0
 14  9  1  0
 20 15  1  0
M  END
> <Identifier>
BUDIPINE

> <hERG>
1

$$$$

     RDKit          2D

 30 33  0  0  0  0  0  0  0  0999 V2000
  -10.8222    1.2560    0.0000 C   0  0  0  0  0  0  0  0  0  0  0  0
   -9.8107    0.1483    0.0000 O   0  0  0  0  0  0  0  0  0  0  0  0
   -8.3457    0.4704    0.0000 C   0  0  0  0  0  0  0  0  0  0  0  0
   -7.8922    1.9002    0.0000 C   0  0  0  0  0  0  0  0  0  0  0  0
   -6.4272    2.2223    0.0000 C   0  0  0  0  0  0  0  0  0  0  0  0
   -5.4157    1.1147    0.0000 C   0  0  0  0  0  0  0  0  0  0  0  0
   -5.8693   -0.3151    0.0000 C   0  0  0  0  0  0  0  0  0  0  0  0
   -4.8578   -1.4228    0.0000 C   0  0  0  0  0  0  0  0  0  0  0  0
   -3.3928   -1.1007    0.0000 N   0  0  0  0  0  0  0  0  0  0  0  0
   -2.3813   -2.2084    0.0000 C   0  0  0  0  0  0  0  0  0  0  0  0
   -0.9163   -1.8862    0.0000 C   0  0  0  0  0  0  0  0  0  0  0  0
   -0.4628   -0.4564    0.0000 C   0  0  0  0  0  0  0  0  0  0  0  0
    1.0022   -0.1343    0.0000 N   0  0  0  0  0  0  0  0  0  0  0  0
    2.0137   -1.2420    0.0000 C   0  0  0  0  0  0  0  0  0  0  0  0
    1.5602   -2.6718    0.0000 O   0  0  0  0  0  0  0  0  0  0  0  0
    3.4787   -0.9199    0.0000 C   0  0  0  0  0  0  0  0  0  0  0  0
    4.4902   -2.0275    0.0000 C   0  0  0  0  0  0  0  0  0  0  0  0
    5.9552   -1.7054    0.0000 C   0  0  0  0  0  0  0  0  0  0  0  0
    6.9666   -2.8131    0.0000 O   0  0  0  0  0  0  0  0  0  0  0  0
    6.4087   -0.2756    0.0000 C   0  0  0  0  0  0  0  0  0  0  0  0
    7.8737    0.0465    0.0000 C   0  0  0  0  0  0  0  0  0  0  0  0
    8.3272    1.4763    0.0000 C   0  0  0  0  0  0  0  0  0  0  0  0
    7.3158    2.5840    0.0000 C   0  0  0  0  0  0  0  0  0  0  0  0
    7.7693    4.0138    0.0000 F   0  0  0  0  0  0  0  0  0  0  0  0
    5.8508    2.2618    0.0000 C   0  0  0  0  0  0  0  0  0  0  0  0
    5.3972    0.8321    0.0000 C   0  0  0  0  0  0  0  0  0  0  0  0
    3.9322    0.5099    0.0000 O   0  0  0  0  0  0  0  0  0  0  0  0
   -1.4742    0.6512    0.0000 C   0  0  0  0  0  0  0  0  0  0  0  0
   -2.9392    0.3291    0.0000 C   0  0  0  0  0  0  0  0  0  0  0  0
   -7.3343   -0.6373    0.0000 C   0  0  0  0  0  0  0  0  0  0  0  0
  1  2  1  0
  2  3  1  0
  3  4  2  0
  4  5  1  0
  5  6  2  0
  6  7  1  0
  7  8  1  0
  8  9  1  0
  9 10  1  0
 10 11  1  0
 11 12  1  0
 12 13  1  0
 13 14  1  0
 14 15  2  0
 14 16  1  0
 16 17  2  0
 17 18  1  0
 18 19  2  0
 18 20  1  0
 20 21  2  0
 21 22  1  0
 22 23  2  0
 23 24  1  0
 23 25  1  0
 25 26  2  0
 26 27  1  0
 12 28  1  0
 28 29  1  0
  7 30  2  0
 30  3  1  0
 29  9  1  0
 27 16  1  0
 26 20  1  0
M  END
> <Identifier>
JMC20066569-46

> <hERG>
1

$$$$

     RDKit          2D

 30 33  0  0  0  0  0  0  0  0999 V2000
   10.1209    2.4982    0.0000 C   0  0  0  0  0  0  0  0  0  0  0  0
    8.7725    1.8410    0.0000 O   0  0  0  0  0  0  0  0  0  0  0  0
    8.6674    0.3447    0.0000 C   0  0  0  0  0  0  0  0  0  0  0  0
    9.9107   -0.4945    0.0000 C   0  0  0  0  0  0  0  0  0  0  0  0
    9.8057   -1.9908    0.0000 C   0  0  0  0  0  0  0  0  0  0  0  0
    8.4573   -2.6480    0.0000 C   0  0  0  0  0  0  0  0  0  0  0  0
    7.2140   -1.8088    0.0000 C   0  0  0  0  0  0  0  0  0  0  0  0
    7.3190   -0.3125    0.0000 C   0  0  0  0  0  0  0  0  0  0  0  0
    6.0757    0.5267    0.0000 O   0  0  0  0  0  0  0  0  0  0  0  0
    4.7274   -0.1305    0.0000 C   0  0  0  0  0  0  0  0  0  0  0  0
    3.4840    0.7087    0.0000 C   0  0  0  0  0  0  0  0  0  0  0  0
    2.1357    0.0515    0.0000 N   0  0  0  0  0  4  0  0  0  0  0  0
    0.8923    0.8906    0.0000 C   0  0  0  0  0  0  0  0  0  0  0  0
   -0.4560    0.2335    0.0000 C   0  0  0  0  0  0  0  0  0  0  0  0
   -0.5611   -1.2628    0.0000 O   0  0  0  0  0  0  0  0  0  0  0  0
   -1.6993    1.0726    0.0000 C   0  0  0  0  0  0  0  0  0  0  0  0
   -3.0477    0.4155    0.0000 O   0  0  0  0  0  0  0  0  0  0  0  0
   -4.2910    1.2546    0.0000 C   0  0  0  0  0  0  0  0  0  0  0  0
   -4.1860    2.7509    0.0000 C   0  0  0  0  0  0  0  0  0  0  0  0
   -5.4293    3.5901    0.0000 C   0  0  0  0  0  0  0  0  0  0  0  0
   -6.7777    2.9329    0.0000 C   0  0  0  0  0  0  0  0  0  0  0  0
   -6.8827    1.4366    0.0000 C   0  0  0  0  0  0  0  0  0  0  0  0
   -8.0650    0.5135    0.0000 N   0  0  0  0  0  0  0  0  0  0  0  0
   -7.5524   -0.8962    0.0000 C   0  0  0  0  0  0  0  0  0  0  0  0
   -8.2570   -2.2204    0.0000 C   0  0  0  0  0  0  0  0  0  0  0  0
   -7.4625   -3.4927    0.0000 C   0  0  0  0  0  0  0  0  0  0  0  0
   -5.9634   -3.4408    0.0000 C   0  0  0  0  0  0  0  0  0  0  0  0
   -5.2588   -2.1166    0.0000 C   0  0  0  0  0  0  0  0  0  0  0  0
   -6.0533   -0.8443    0.0000 C   0  0  0  0  0  0  0  0  0  0  0  0
   -5.6394    0.5975    0.0000 C   0  0  0  0  0  0  0  0  0  0  0  0
  1  2  1  0
  2  3  1  0
  3  4  2  0
  4  5  1  0
  5  6  2  0
  6  7  1  0
  7  8  2  0
  8  9  1  0
  9 10  1  0
 10 11  1  0
 11 12  1  0
 12 13  1  0
 13 14  1  0
 14 15  1  1
 14 16  1  0
 16 17  1  0
 17 18  1  0
 18 19  2  0
 19 20  1  0
 20 21  2  0
 21 22  1  0
 22 23  2  0
 23 24  1  0
 24 25  2  0
 25 26  1  0
 26 27  2  0
 27 28  1  0
 28 29  2  0
 29 30  1  0
  8  3  1  0
 30 18  1  6
 30 22  1  0
 29 24  1  0
M  CHG  1  12   1
M  END
> <Identifier>
CARVEDILOL

> <hERG>
1

$$$$

     RDKit          2D

 32 36  0  0  0  0  0  0  0  0999 V2000
    1.5666   -2.8209    0.0000 O   0  0  0  0  0  0  0  0  0  0  0  0
    1.9987   -1.3845    0.0000 C   0  0  0  0  0  0  0  0  0  0  0  0
    0.9708   -0.2921    0.0000 N   0  0  0  0  0  0  0  0  0  0  0  0
   -0.4892   -0.6360    0.0000 C   0  0  0  0  0  0  0  0  0  0  0  0
   -1.5171    0.4564    0.0000 C   0  0  0  0  0  0  0  0  0  0  0  0
   -2.9772    0.1124    0.0000 C   0  0  0  0  0  0  0  0  0  0  0  0
   -3.4093   -1.3240    0.0000 N   0  0  0  0  0  0  0  0  0  0  0  0
   -4.8693   -1.6679    0.0000 C   0  0  0  0  0  0  0  0  0  0  0  0
   -5.8972   -0.5755    0.0000 C   0  0  0  0  0  0  0  0  0  0  0  0
   -5.4651    0.8609    0.0000 C   0  0  0  0  0  0  0  0  0  0  0  0
   -6.4930    1.9533    0.0000 C   0  0  0  0  0  0  0  0  0  0  0  0
   -7.9530    1.6094    0.0000 C   0  0  0  0  0  0  0  0  0  0  0  0
   -8.3851    0.1730    0.0000 C   0  0  0  0  0  0  0  0  0  0  0  0
   -7.3572   -0.9195    0.0000 C   0  0  0  0  0  0  0  0  0  0  0  0
   -9.8848    0.1401    0.0000 O   0  0  0  0  0  0  0  0  0  0  0  0
  -10.3795    1.5561    0.0000 C   0  0  0  0  0  0  0  0  0  0  0  0
   -9.1856    2.4642    0.0000 O   0  0  0  0  0  0  0  0  0  0  0  0
   -2.3814   -2.4164    0.0000 C   0  0  0  0  0  0  0  0  0  0  0  0
   -0.9213   -2.0724    0.0000 C   0  0  0  0  0  0  0  0  0  0  0  0
    3.4587   -1.0405    0.0000 C   0  0  0  0  0  0  0  0  0  0  0  0
    4.4866   -2.1330    0.0000 C   0  0  0  0  0  0  0  0  0  0  0  0
    5.9467   -1.7890    0.0000 C   0  0  0  0  0  0  0  0  0  0  0  0
    6.9746   -2.8814    0.0000 O   0  0  0  0  0  0  0  0  0  0  0  0
    6.3788   -0.3526    0.0000 C   0  0  0  0  0  0  0  0  0  0  0  0
    7.8388   -0.0086    0.0000 C   0  0  0  0  0  0  0  0  0  0  0  0
    8.2710    1.4278    0.0000 C   0  0  0  0  0  0  0  0  0  0  0  0
    9.7310    1.7718    0.0000 F   0  0  0  0  0  0  0  0  0  0  0  0
    7.2430    2.5202    0.0000 C   0  0  0  0  0  0  0  0  0  0  0  0
    7.6752    3.9566    0.0000 Cl  0  0  0  0  0  0  0  0  0  0  0  0
    5.7830    2.1763    0.0000 C   0  0  0  0  0  0  0  0  0  0  0  0
    5.3509    0.7399    0.0000 C   0  0  0  0  0  0  0  0  0  0  0  0
    3.8909    0.3959    0.0000 O   0  0  0  0  0  0  0  0  0  0  0  0
  1  2  2  0
  2  3  1  0
  3  4  1  0
  4  5  1  0
  5  6  1  0
  6  7  1  0
  7  8  1  0
  8  9  1  0
  9 10  2  0
 10 11  1  0
 11 12  2  0
 12 13  1  0
 13 14  2  0
 13 15  1  0
 15 16  1  0
 16 17  1  0
  7 18  1  0
 18 19  1  0
  2 20  1  0
 20 21  2  0
 21 22  1  0
 22 23  2  0
 22 24  1  0
 24 25  2  0
 25 26  1  0
 26 27  1  0
 26 28  2  0
 28 29  1  0
 28 30  1  0
 30 31  2  0
 31 32  1  0
 19  4  1  0
 32 20  1  0
 14  9  1  0
 31 24  1  0
 17 12  1  0
M  END
> <Identifier>
JMC20066569-34

> <hERG>
1

$$$$

     RDKit          2D

 33 37  0  0  0  0  0  0  0  0999 V2000
   -0.6090   -2.8997    0.0000 O   0  0  0  0  0  0  0  0  0  0  0  0
   -1.4712   -1.6722    0.0000 C   0  0  0  0  0  0  0  0  0  0  0  0
   -2.9653   -1.8052    0.0000 C   0  0  0  0  0  0  0  0  0  0  0  0
   -3.8275   -0.5778    0.0000 N   0  0  0  0  0  0  0  0  0  0  0  0
   -5.3216   -0.7108    0.0000 C   0  0  0  0  0  0  0  0  0  0  0  0
   -6.1838    0.5167    0.0000 C   0  0  0  0  0  0  0  0  0  0  0  0
   -7.6779    0.3837    0.0000 C   0  0  0  0  0  0  0  0  0  0  0  0
   -8.5401    1.6111    0.0000 C   0  0  0  0  0  0  0  0  0  0  0  0
  -10.0342    1.4781    0.0000 C   0  0  0  0  0  0  0  0  0  0  0  0
  -10.6661    0.1177    0.0000 C   0  0  0  0  0  0  0  0  0  0  0  0
  -12.1602   -0.0153    0.0000 F   0  0  0  0  0  0  0  0  0  0  0  0
   -9.8039   -1.1097    0.0000 C   0  0  0  0  0  0  0  0  0  0  0  0
   -8.3098   -0.9767    0.0000 C   0  0  0  0  0  0  0  0  0  0  0  0
   -3.1956    0.7826    0.0000 C   0  0  0  0  0  0  0  0  0  0  0  0
   -1.7015    0.9156    0.0000 C   0  0  0  0  0  0  0  0  0  0  0  0
   -0.8393   -0.3118    0.0000 N   0  0  0  0  0  0  0  0  0  0  0  0
    0.6548   -0.1788    0.0000 C   0  0  0  0  0  0  0  0  0  0  0  0
    1.5170   -1.4063    0.0000 C   0  0  0  0  0  0  0  0  0  0  0  0
    3.0111   -1.2733    0.0000 C   0  0  0  0  0  0  0  0  0  0  0  0
    3.6430    0.0871    0.0000 C   0  0  0  0  0  0  0  0  0  0  0  0
    5.1371    0.2201    0.0000 C   0  0  0  0  0  0  0  0  0  0  0  0
    5.7690    1.5805    0.0000 C   0  0  0  0  0  0  0  0  0  0  0  0
    7.2631    1.7135    0.0000 C   0  0  0  0  0  0  0  0  0  0  0  0
    8.1253    0.4861    0.0000 N   0  0  0  0  0  0  0  0  0  0  0  0
    7.4934   -0.8744    0.0000 C   0  0  0  0  0  0  0  0  0  0  0  0
    8.3556   -2.1018    0.0000 C   0  0  0  0  0  0  0  0  0  0  0  0
    9.8497   -1.9688    0.0000 C   0  0  0  0  0  0  0  0  0  0  0  0
   10.4816   -0.6084    0.0000 C   0  0  0  0  0  0  0  0  0  0  0  0
    9.6194    0.6190    0.0000 C   0  0  0  0  0  0  0  0  0  0  0  0
    4.9067    2.8079    0.0000 C   0  0  0  0  0  0  0  0  0  0  0  0
    3.4127    2.6750    0.0000 C   0  0  0  0  0  0  0  0  0  0  0  0
    2.7808    1.3146    0.0000 C   0  0  0  0  0  0  0  0  0  0  0  0
    1.2867    1.1816    0.0000 C   0  0  0  0  0  0  0  0  0  0  0  0
  1  2  2  0
  2  3  1  0
  3  4  1  0
  4  5  1  0
  5  6  1  0
  6  7  1  0
  7  8  2  0
  8  9  1  0
  9 10  2  0
 10 11  1  0
 10 12  1  0
 12 13  2  0
  4 14  1  0
 14 15  1  0
 15 16  1  0
 17 16  1  6
 17 18  1  0
 18 19  1  0
 19 20  1  0
 20 21  2  0
 21 22  1  0
 22 23  1  0
 23 24  1  0
 24 25  1  0
 25 26  1  0
 26 27  1  0
 27 28  1  0
 28 29  1  0
 22 30  2  0
 30 31  1  0
 31 32  2  0
 32 33  1  0
 16  2  1  0
 33 17  1  0
 13  7  1  0
 32 20  1  0
 29 24  1  0
M  END
> <Identifier>
AMINOMETHYL TETRAHYDRONAPHTHALENE KETOPIPERAZINE 4E

> <hERG>
1

$$$$

     RDKit          2D

 26 29  0  0  0  0  0  0  0  0999 V2000
   -3.4079    0.2010    0.0000 O   0  0  0  0  0  0  0  0  0  0  0  0
   -2.1458    1.0117    0.0000 C   0  0  0  0  0  0  0  0  0  0  0  0
   -2.2168    2.5100    0.0000 C   0  0  0  0  0  0  0  0  0  0  0  0
   -0.9547    3.3206    0.0000 O   0  0  0  0  0  0  0  0  0  0  0  0
   -3.5499    3.1977    0.0000 C   0  0  0  0  0  0  0  0  0  0  0  0
   -5.0482    3.1267    0.0000 C   0  0  0  0  0  0  0  0  0  0  0  0
   -4.3605    4.4598    0.0000 C   0  0  0  0  0  0  0  0  0  0  0  0
   -0.8128    0.3240    0.0000 N   0  0  0  0  0  0  0  0  0  0  0  0
    0.5271    0.9983    0.0000 C   0  0  0  0  0  0  0  0  0  0  0  0
    1.5825   -0.0677    0.0000 C   0  0  0  0  0  0  0  0  0  0  0  0
    3.0652    0.1595    0.0000 C   0  0  0  0  0  0  0  0  0  0  0  0
    4.0033   -1.0109    0.0000 C   0  0  0  0  0  0  0  0  0  0  0  0
    5.4860   -0.7837    0.0000 C   0  0  0  0  0  0  0  0  0  0  0  0
    6.4241   -1.9542    0.0000 F   0  0  0  0  0  0  0  0  0  0  0  0
    6.0305    0.6139    0.0000 C   0  0  0  0  0  0  0  0  0  0  0  0
    5.0924    1.7844    0.0000 C   0  0  0  0  0  0  0  0  0  0  0  0
    3.6097    1.5572    0.0000 C   0  0  0  0  0  0  0  0  0  0  0  0
    2.6716    2.7276    0.0000 F   0  0  0  0  0  0  0  0  0  0  0  0
    0.8948   -1.4008    0.0000 C   0  0  0  0  0  0  0  0  0  0  0  0
   -0.5855   -1.1587    0.0000 C   0  0  0  0  0  0  0  0  0  0  0  0
   -1.6515   -2.2140    0.0000 C   0  0  0  0  0  0  0  0  0  0  0  0
   -3.0984   -1.8185    0.0000 C   0  0  0  0  0  0  0  0  0  0  0  0
   -4.1644   -2.8739    0.0000 C   0  0  0  0  0  0  0  0  0  0  0  0
   -3.7835   -4.3247    0.0000 C   0  0  0  0  0  0  0  0  0  0  0  0
   -2.3365   -4.7202    0.0000 C   0  0  0  0  0  0  0  0  0  0  0  0
   -1.2706   -3.6649    0.0000 C   0  0  0  0  0  0  0  0  0  0  0  0
  1  2  2  0
  2  3  1  0
  3  4  1  1
  3  5  1  0
  5  6  1  0
  6  7  1  0
  2  8  1  0
  8  9  1  0
  9 10  1  0
 10 11  1  0
 11 12  2  0
 12 13  1  0
 13 14  1  0
 13 15  2  0
 15 16  1  0
 16 17  2  0
 17 18  1  0
 10 19  2  0
 19 20  1  0
 20 21  1  6
 21 22  2  0
 22 23  1  0
 23 24  2  0
 24 25  1  0
 25 26  2  0
  7  5  1  0
 20  8  1  0
 26 21  1  0
 17 11  1  0
M  END
> <Identifier>
BMCL-16-2007-1777-22

> <hERG>
1

$$$$

     RDKit          2D

 21 23  0  0  0  0  0  0  0  0999 V2000
    4.2345    4.0722    0.0000 C   0  0  0  0  0  0  0  0  0  0  0  0
    3.0045    3.2136    0.0000 N   0  0  0  0  0  4  0  0  0  0  0  0
    1.6459    3.8494    0.0000 C   0  0  0  0  0  0  0  0  0  0  0  0
    3.1331    1.7191    0.0000 C   0  0  0  0  0  0  0  0  0  0  0  0
    1.9032    0.8605    0.0000 C   0  0  0  0  0  0  0  0  0  0  0  0
    0.4856    1.3508    0.0000 C   0  0  0  0  0  0  0  0  0  0  0  0
   -0.4188    0.1541    0.0000 N   0  0  0  0  0  0  0  0  0  0  0  0
   -1.9185    0.1824    0.0000 C   0  0  0  0  0  0  0  0  0  0  0  0
   -2.6439    1.4954    0.0000 C   0  0  0  0  0  0  0  0  0  0  0  0
   -4.1436    1.5237    0.0000 C   0  0  0  0  0  0  0  0  0  0  0  0
   -4.9180    0.2390    0.0000 C   0  0  0  0  0  0  0  0  0  0  0  0
   -6.4177    0.2673    0.0000 F   0  0  0  0  0  0  0  0  0  0  0  0
   -4.1926   -1.0739    0.0000 C   0  0  0  0  0  0  0  0  0  0  0  0
   -2.6929   -1.1022    0.0000 C   0  0  0  0  0  0  0  0  0  0  0  0
    0.4398   -1.0758    0.0000 C   0  0  0  0  0  0  0  0  0  0  0  0
    0.1004   -2.5369    0.0000 C   0  0  0  0  0  0  0  0  0  0  0  0
    1.1959   -3.5614    0.0000 C   0  0  0  0  0  0  0  0  0  0  0  0
    2.6310   -3.1249    0.0000 C   0  0  0  0  0  0  0  0  0  0  0  0
    3.7266   -4.1494    0.0000 Cl  0  0  0  0  0  0  0  0  0  0  0  0
    2.9705   -1.6638    0.0000 C   0  0  0  0  0  0  0  0  0  0  0  0
    1.8749   -0.6393    0.0000 C   0  0  0  0  0  0  0  0  0  0  0  0
  1  2  1  0
  2  3  1  0
  2  4  1  0
  4  5  1  0
  5  6  2  0
  6  7  1  0
  7  8  1  0
  8  9  2  0
  9 10  1  0
 10 11  2  0
 11 12  1  0
 11 13  1  0
 13 14  2  0
  7 15  1  0
 15 16  2  0
 16 17  1  0
 17 18  2  0
 18 19  1  0
 18 20  1  0
 20 21  2  0
 21  5  1  0
 14  8  1  0
 21 15  1  0
M  CHG  1   2   1
M  END
> <Identifier>
SERTINDOLE15

> <hERG>
1

$$$$

     RDKit          2D

 31 34  0  0  0  0  0  0  0  0999 V2000
    1.9600   -3.7767    0.0000 N   0  0  0  0  0  0  0  0  0  0  0  0
    0.5511   -3.2621    0.0000 C   0  0  0  0  0  0  0  0  0  0  0  0
   -0.8579   -2.7476    0.0000 C   0  0  0  0  0  0  0  0  0  0  0  0
   -2.0080   -3.7105    0.0000 C   0  0  0  0  0  0  0  0  0  0  0  0
   -3.4170   -3.1959    0.0000 C   0  0  0  0  0  0  0  0  0  0  0  0
   -3.6759   -1.7185    0.0000 C   0  0  0  0  0  0  0  0  0  0  0  0
   -5.0849   -1.2039    0.0000 C   0  0  0  0  0  0  0  0  0  0  0  0
   -5.3438    0.2736    0.0000 N   0  0  0  0  0  0  0  0  0  0  0  0
   -6.6912    0.9326    0.0000 C   0  0  0  0  0  0  0  0  0  0  0  0
   -6.4809    2.4178    0.0000 N   0  0  0  0  0  0  0  0  0  0  0  0
   -5.0034    2.6767    0.0000 C   0  0  0  0  0  0  0  0  0  0  0  0
   -4.3006    1.3515    0.0000 C   0  0  0  0  0  0  0  0  0  0  0  0
   -2.8154    1.1411    0.0000 C   0  0  0  0  0  0  0  0  0  0  0  0
   -1.8907    2.3221    0.0000 N   0  0  0  0  0  4  0  0  0  0  0  0
   -0.4055    2.1118    0.0000 C   0  0  0  0  0  0  0  0  0  0  0  0
    0.6377    3.1896    0.0000 C   0  0  0  0  0  0  0  0  0  0  0  0
    1.9852    2.5306    0.0000 C   0  0  0  0  0  0  0  0  0  0  0  0
    1.7748    1.0455    0.0000 N   0  0  0  0  0  0  0  0  0  0  0  0
    2.8527    0.0023    0.0000 C   0  0  0  0  0  0  0  0  0  0  0  0
    2.4882   -1.4527    0.0000 O   0  0  0  0  0  0  0  0  0  0  0  0
    4.2950    0.4142    0.0000 C   0  0  0  0  0  0  0  0  0  0  0  0
    4.6595    1.8693    0.0000 C   0  0  0  0  0  0  0  0  0  0  0  0
    6.1018    2.2811    0.0000 C   0  0  0  0  0  0  0  0  0  0  0  0
    7.1797    1.2380    0.0000 C   0  0  0  0  0  0  0  0  0  0  0  0
    6.8152   -0.2171    0.0000 N   0  0  0  0  0  0  0  0  0  0  0  0
    5.3729   -0.6290    0.0000 C   0  0  0  0  0  0  0  0  0  0  0  0
    5.0084   -2.0840    0.0000 S   0  0  0  0  0  1  0  0  0  0  0  0
    0.2973    0.7866    0.0000 C   0  0  0  0  0  0  0  0  0  0  0  0
   -0.3617   -0.5609    0.0000 O   0  0  0  0  0  0  0  0  0  0  0  0
   -2.5258   -0.7555    0.0000 C   0  0  0  0  0  0  0  0  0  0  0  0
   -1.1168   -1.2701    0.0000 C   0  0  0  0  0  0  0  0  0  0  0  0
  1  2  3  0
  2  3  1  0
  3  4  2  0
  4  5  1  0
  5  6  2  0
  6  7  1  0
  7  8  1  0
  8  9  1  0
  9 10  2  0
 10 11  1  0
 11 12  2  0
 12 13  1  0
 13 14  1  0
 15 14  1  6
 15 16  1  0
 16 17  1  0
 17 18  1  0
 18 19  1  0
 19 20  2  0
 19 21  1  0
 21 22  2  0
 22 23  1  0
 23 24  2  0
 24 25  1  0
 25 26  2  0
 26 27  1  0
 18 28  1  0
 28 29  2  0
  6 30  1  0
 30 31  2  0
 31  3  1  0
 12  8  1  0
 28 15  1  0
 26 21  1  0
M  CHG  2  14   1  27  -1
M  END
> <Identifier>
WOMBAT11

> <hERG>
1

$$$$

     RDKit          2D

 32 36  0  0  0  0  0  0  0  0999 V2000
   -9.2370   -4.0364    0.0000 C   0  0  0  0  0  0  0  0  0  0  0  0
   -7.7703   -3.7219    0.0000 O   0  0  0  0  0  0  0  0  0  0  0  0
   -7.3094   -2.2945    0.0000 C   0  0  0  0  0  0  0  0  0  0  0  0
   -8.3150   -1.1816    0.0000 C   0  0  0  0  0  0  0  0  0  0  0  0
   -7.8541    0.2458    0.0000 C   0  0  0  0  0  0  0  0  0  0  0  0
   -6.3874    0.5603    0.0000 C   0  0  0  0  0  0  0  0  0  0  0  0
   -5.9265    1.9878    0.0000 C   0  0  0  0  0  0  0  0  0  0  0  0
   -6.9322    3.1007    0.0000 O   0  0  0  0  0  0  0  0  0  0  0  0
   -4.4598    2.3023    0.0000 C   0  0  0  0  0  0  0  0  0  0  0  0
   -3.4541    1.1893    0.0000 C   0  0  0  0  0  0  0  0  0  0  0  0
   -1.9874    1.5038    0.0000 C   0  0  0  0  0  0  0  0  0  0  0  0
   -1.5265    2.9313    0.0000 O   0  0  0  0  0  0  0  0  0  0  0  0
   -0.9818    0.3909    0.0000 N   0  0  0  0  0  0  0  0  0  0  0  0
    0.4849    0.7054    0.0000 C   0  0  0  0  0  0  0  0  0  0  0  0
    1.4906   -0.4075    0.0000 C   0  0  0  0  0  0  0  0  0  0  0  0
    2.9573   -0.0930    0.0000 C   0  0  0  0  0  0  0  0  0  0  0  0
    3.4182    1.3344    0.0000 N   0  0  0  0  0  0  0  0  0  0  0  0
    4.8849    1.6489    0.0000 C   0  0  0  0  0  0  0  0  0  0  0  0
    5.8906    0.5360    0.0000 C   0  0  0  0  0  0  0  0  0  0  0  0
    5.4296   -0.8914    0.0000 C   0  0  0  0  0  0  0  0  0  0  0  0
    6.4353   -2.0043    0.0000 C   0  0  0  0  0  0  0  0  0  0  0  0
    7.9020   -1.6898    0.0000 C   0  0  0  0  0  0  0  0  0  0  0  0
    8.3629   -0.2624    0.0000 C   0  0  0  0  0  0  0  0  0  0  0  0
    7.3572    0.8505    0.0000 C   0  0  0  0  0  0  0  0  0  0  0  0
    9.8629   -0.2597    0.0000 O   0  0  0  0  0  0  0  0  0  0  0  0
   10.3290   -1.6854    0.0000 C   0  0  0  0  0  0  0  0  0  0  0  0
    9.1171   -2.5693    0.0000 O   0  0  0  0  0  0  0  0  0  0  0  0
    2.4125    2.4473    0.0000 C   0  0  0  0  0  0  0  0  0  0  0  0
    0.9459    2.1328    0.0000 C   0  0  0  0  0  0  0  0  0  0  0  0
   -3.9151   -0.2381    0.0000 O   0  0  0  0  0  0  0  0  0  0  0  0
   -5.3817   -0.5526    0.0000 C   0  0  0  0  0  0  0  0  0  0  0  0
   -5.8427   -1.9800    0.0000 C   0  0  0  0  0  0  0  0  0  0  0  0
  1  2  1  0
  2  3  1  0
  3  4  2  0
  4  5  1  0
  5  6  2  0
  6  7  1  0
  7  8  2  0
  7  9  1  0
  9 10  2  0
 10 11  1  0
 11 12  2  0
 11 13  1  0
 13 14  1  0
 14 15  1  0
 15 16  1  0
 16 17  1  0
 17 18  1  0
 18 19  1  0
 19 20  2  0
 20 21  1  0
 21 22  2  0
 22 23  1  0
 23 24  2  0
 23 25  1  0
 25 26  1  0
 26 27  1  0
 17 28  1  0
 28 29  1  0
 10 30  1  0
 30 31  1  0
 31 32  2  0
 32  3  1  0
 31  6  1  0
 29 14  1  0
 24 19  1  0
 27 22  1  0
M  END
> <Identifier>
JMC20066569-2

> <hERG>
1

$$$$

     RDKit          2D

 40 43  0  0  0  0  0  0  0  0999 V2000
   -5.7613    1.5359    0.0000 C   0  0  0  0  0  0  0  0  0  0  0  0
   -4.7020    2.5979    0.0000 C   0  0  0  0  0  0  0  0  0  0  0  0
   -5.0921    4.0463    0.0000 C   0  0  0  0  0  0  0  0  0  0  0  0
   -6.5414    4.4327    0.0000 O   0  0  0  0  0  0  0  0  0  0  0  0
   -4.0328    5.1083    0.0000 C   0  0  0  0  0  0  0  0  0  0  0  0
   -2.5834    4.7219    0.0000 C   0  0  0  0  0  0  0  0  0  0  0  0
   -2.1933    3.2735    0.0000 C   0  0  0  0  0  0  0  0  0  0  0  0
   -3.2526    2.2115    0.0000 C   0  0  0  0  0  0  0  0  0  0  0  0
   -2.8625    0.7631    0.0000 C   0  0  0  0  0  0  0  0  0  0  0  0
   -3.9218   -0.2989    0.0000 O   0  0  0  0  0  0  0  0  0  0  0  0
   -1.4131    0.3767    0.0000 N   0  0  0  0  0  0  0  0  0  0  0  0
   -1.0231   -1.0717    0.0000 C   0  0  0  0  0  0  0  0  0  0  0  0
   -2.0824   -2.1337    0.0000 C   0  0  0  0  0  0  0  0  0  0  0  0
   -3.5318   -1.7473    0.0000 S   0  0  0  0  0  0  0  0  0  0  0  0
   -4.5911   -2.8093    0.0000 C   0  0  0  0  0  0  0  0  0  0  0  0
   -6.0405   -2.4229    0.0000 C   0  0  0  0  0  0  0  0  0  0  0  0
   -7.0998   -3.4849    0.0000 C   0  0  0  0  0  0  0  0  0  0  0  0
   -6.7097   -4.9333    0.0000 C   0  0  0  0  0  0  0  0  0  0  0  0
   -5.2603   -5.3197    0.0000 C   0  0  0  0  0  0  0  0  0  0  0  0
   -4.2010   -4.2577    0.0000 C   0  0  0  0  0  0  0  0  0  0  0  0
    0.4263   -1.4581    0.0000 C   0  0  0  0  0  0  0  0  0  0  0  0
    0.8164   -2.9064    0.0000 O   0  0  0  0  0  0  0  0  0  0  0  0
    1.4856   -0.3960    0.0000 C   0  0  0  0  0  0  0  0  0  0  0  0
    2.9350   -0.7824    0.0000 N   0  0  0  0  0  4  0  0  0  0  0  0
    3.3251   -2.2308    0.0000 C   0  0  0  0  0  0  0  0  0  0  0  0
    4.7745   -2.6172    0.0000 C   0  0  0  0  0  0  0  0  0  0  0  0
    5.1645   -4.0656    0.0000 C   0  0  0  0  0  0  0  0  0  0  0  0
    6.6139   -4.4520    0.0000 C   0  0  0  0  0  0  0  0  0  0  0  0
    7.6732   -3.3900    0.0000 C   0  0  0  0  0  0  0  0  0  0  0  0
    7.2831   -1.9416    0.0000 C   0  0  0  0  0  0  0  0  0  0  0  0
    5.8338   -1.5552    0.0000 C   0  0  0  0  0  0  0  0  0  0  0  0
    5.4437   -0.1068    0.0000 C   0  0  0  0  0  0  0  0  0  0  0  0
    3.9943    0.2796    0.0000 C   0  0  0  0  0  0  0  0  0  0  0  0
    3.6042    1.7280    0.0000 C   0  0  0  0  0  0  0  0  0  0  0  0
    2.1549    2.1144    0.0000 O   0  0  0  0  0  0  0  0  0  0  0  0
    4.6635    2.7900    0.0000 N   0  0  0  0  0  0  0  0  0  0  0  0
    4.2735    4.2384    0.0000 C   0  0  0  0  0  0  0  0  0  0  0  0
    5.7219    4.6285    0.0000 C   0  0  0  0  0  0  0  0  0  0  0  0
    2.8251    3.8483    0.0000 C   0  0  0  0  0  0  0  0  0  0  0  0
    3.8834    5.6868    0.0000 C   0  0  0  0  0  0  0  0  0  0  0  0
  1  2  1  0
  2  3  2  0
  3  4  1  0
  3  5  1  0
  5  6  2  0
  6  7  1  0
  7  8  2  0
  8  9  1  0
  9 10  2  0
  9 11  1  0
 11 12  1  0
 12 13  1  6
 13 14  1  0
 14 15  1  0
 15 16  2  0
 16 17  1  0
 17 18  2  0
 18 19  1  0
 19 20  2  0
 12 21  1  0
 21 22  1  1
 21 23  1  0
 23 24  1  0
 24 25  1  0
 26 25  1  6
 26 27  1  0
 27 28  1  0
 28 29  1  0
 29 30  1  0
 31 30  1  6
 31 32  1  0
 32 33  1  0
 33 34  1  6
 34 35  2  0
 34 36  1  0
 36 37  1  0
 37 38  1  0
 37 39  1  0
 37 40  1  0
  8  2  1  0
 20 15  1  0
 33 24  1  0
 31 26  1  0
M  CHG  1  24   1
M  END
> <Identifier>
NELFINAVIR

> <hERG>
1

$$$$

     RDKit          2D

 31 35  0  0  0  0  0  0  0  0999 V2000
  -13.3809   -2.3412    0.0000 C   0  0  0  0  0  0  0  0  0  0  0  0
  -11.9466   -2.7801    0.0000 O   0  0  0  0  0  0  0  0  0  0  0  0
  -10.8493   -1.7573    0.0000 C   0  0  0  0  0  0  0  0  0  0  0  0
   -9.4149   -2.1962    0.0000 C   0  0  0  0  0  0  0  0  0  0  0  0
   -8.3177   -1.1734    0.0000 O   0  0  0  0  0  0  0  0  0  0  0  0
   -6.8833   -1.6123    0.0000 C   0  0  0  0  0  0  0  0  0  0  0  0
   -5.7861   -0.5895    0.0000 C   0  0  0  0  0  0  0  0  0  0  0  0
   -4.6888    0.4332    0.0000 C   0  0  0  0  0  0  0  0  0  0  0  0
   -3.5916    1.4560    0.0000 C   0  0  0  0  0  0  0  0  0  0  0  0
   -2.1192    1.1695    0.0000 C   0  0  0  0  0  0  0  0  0  0  0  0
   -1.3917    2.4812    0.0000 C   0  0  0  0  0  0  0  0  0  0  0  0
    0.0972    2.6637    0.0000 C   0  0  0  0  0  0  0  0  0  0  0  0
    0.8246    3.9755    0.0000 N   0  0  0  0  0  0  0  0  0  0  0  0
    2.2970    3.6890    0.0000 N   0  0  0  0  0  0  0  0  0  0  0  0
    2.4795    2.2001    0.0000 C   0  0  0  0  0  0  0  0  0  0  0  0
    1.1199    1.5665    0.0000 C   0  0  0  0  0  0  0  0  0  0  0  0
    1.3024    0.0776    0.0000 C   0  0  0  0  0  0  0  0  0  0  0  0
    2.7748   -0.2089    0.0000 C   0  0  0  0  0  0  0  0  0  0  0  0
    3.5471   -1.4948    0.0000 C   0  0  0  0  0  0  0  0  0  0  0  0
    5.0468   -1.4690    0.0000 C   0  0  0  0  0  0  0  0  0  0  0  0
    5.7743   -0.1572    0.0000 C   0  0  0  0  0  0  0  0  0  0  0  0
    7.2741   -0.1314    0.0000 C   0  0  0  0  0  0  0  0  0  0  0  0
    8.0464   -1.4173    0.0000 N   0  0  0  0  0  0  0  0  0  0  0  0
    9.5407   -1.5483    0.0000 C   0  0  0  0  0  0  0  0  0  0  0  0
    9.8778   -3.0100    0.0000 N   0  0  0  0  0  0  0  0  0  0  0  0
    8.5918   -3.7822    0.0000 C   0  0  0  0  0  0  0  0  0  0  0  0
    7.4600   -2.7979    0.0000 N   0  0  0  0  0  0  0  0  0  0  0  0
    5.0021    1.1287    0.0000 C   0  0  0  0  0  0  0  0  0  0  0  0
    3.5023    1.1028    0.0000 C   0  0  0  0  0  0  0  0  0  0  0  0
   -2.4145    3.5785    0.0000 C   0  0  0  0  0  0  0  0  0  0  0  0
   -3.7741    2.9448    0.0000 S   0  0  0  0  0  0  0  0  0  0  0  0
  1  2  1  0
  2  3  1  0
  3  4  1  0
  4  5  1  0
  5  6  1  0
  6  7  1  0
  7  8  3  0
  8  9  1  0
  9 10  2  0
 10 11  1  0
 11 12  1  0
 12 13  2  0
 13 14  1  0
 14 15  1  0
 15 16  2  0
 16 17  1  0
 17 18  1  0
 18 19  2  0
 19 20  1  0
 20 21  2  0
 21 22  1  0
 22 23  1  0
 23 24  1  0
 24 25  2  0
 25 26  1  0
 26 27  2  0
 21 28  1  0
 28 29  2  0
 11 30  2  0
 30 31  1  0
 31  9  1  0
 16 12  1  0
 29 18  1  0
 29 15  1  0
 27 23  1  0
M  END
> <Identifier>
1,4-DIHYDROINDENO[1,2-C]PYRAZOL_90

> <hERG>
1

$$$$

     RDKit          2D

 23 26  0  0  0  0  0  0  0  0999 V2000
   -5.8887   -2.5145    0.0000 C   0  0  0  0  0  0  0  0  0  0  0  0
   -4.4721   -2.0215    0.0000 N   0  0  0  0  0  4  0  0  0  0  0  0
   -4.1907   -0.5481    0.0000 C   0  0  0  0  0  0  0  0  0  0  0  0
   -2.7740   -0.0551    0.0000 C   0  0  0  0  0  0  0  0  0  0  0  0
   -1.6387   -1.0355    0.0000 N   0  0  0  0  0  0  0  0  0  0  0  0
   -0.2221   -0.5425    0.0000 C   0  0  0  0  0  0  0  0  0  0  0  0
    0.8368   -1.6050    0.0000 N   0  0  0  0  0  0  0  0  0  0  0  0
    2.3276   -1.4396    0.0000 C   0  0  0  0  0  0  0  0  0  0  0  0
    3.0263   -2.7669    0.0000 C   0  0  0  0  0  0  0  0  0  0  0  0
    4.5251   -2.8256    0.0000 C   0  0  0  0  0  0  0  0  0  0  0  0
    5.3254   -1.5568    0.0000 C   0  0  0  0  0  0  0  0  0  0  0  0
    4.6267   -0.2295    0.0000 C   0  0  0  0  0  0  0  0  0  0  0  0
    3.1279   -0.1708    0.0000 C   0  0  0  0  0  0  0  0  0  0  0  0
    2.6349    1.2458    0.0000 N   0  0  0  0  0  0  0  0  0  0  0  0
    1.2199    1.7437    0.0000 C   0  0  0  0  0  0  0  0  0  0  0  0
    0.8559    3.1988    0.0000 S   0  0  0  0  0  0  0  0  0  0  0  0
   -0.6406    3.3023    0.0000 C   0  0  0  0  0  0  0  0  0  0  0  0
   -1.4364    4.5737    0.0000 C   0  0  0  0  0  0  0  0  0  0  0  0
   -0.7333    5.8987    0.0000 O   0  0  0  0  0  0  0  0  0  0  0  0
   -1.2014    1.9111    0.0000 C   0  0  0  0  0  0  0  0  0  0  0  0
   -0.0516    0.9478    0.0000 C   0  0  0  0  0  0  0  0  0  0  0  0
   -1.9201   -2.5089    0.0000 C   0  0  0  0  0  0  0  0  0  0  0  0
   -3.3368   -3.0018    0.0000 C   0  0  0  0  0  0  0  0  0  0  0  0
  1  2  1  0
  2  3  1  0
  3  4  1  0
  4  5  1  0
  5  6  1  0
  6  7  2  0
  7  8  1  0
  8  9  2  0
  9 10  1  0
 10 11  2  0
 11 12  1  0
 12 13  2  0
 13 14  1  0
 14 15  1  0
 15 16  1  0
 16 17  1  0
 17 18  1  0
 18 19  1  0
 17 20  2  0
 20 21  1  0
  5 22  1  0
 22 23  1  0
 23  2  1  0
 21  6  1  0
 13  8  1  0
 21 15  2  0
M  CHG  1   2   1
M  END
> <Identifier>
2-HYDROXYMETHYLOLANZAPINE

> <hERG>
1

$$$$

     RDKit          2D

 22 23  0  0  0  0  0  0  0  0999 V2000
   -1.6914    3.5345    0.0000 C   0  0  0  0  0  0  0  0  0  0  0  0
   -0.7101    2.4001    0.0000 C   0  0  0  0  0  0  0  0  0  0  0  0
   -1.2020    0.9830    0.0000 C   0  0  0  0  0  0  0  0  0  0  0  0
   -2.4142    0.9013    0.0000 O   0  0  0  0  0  0  0  0  0  0  0  0
   -0.2207   -0.1515    0.0000 C   0  0  0  0  0  0  0  0  0  0  0  0
   -1.3552   -1.1328    0.0000 C   0  0  0  0  0  0  0  0  0  0  0  0
   -2.7722   -0.6409    0.0000 C   0  0  0  0  0  0  0  0  0  0  0  0
   -3.1449    0.5155    0.0000 C   0  0  0  0  0  0  0  0  0  0  0  0
   -3.9067   -1.6222    0.0000 N   0  0  0  0  0  0  0  0  0  0  0  0
   -5.3238   -1.1304    0.0000 C   0  0  0  0  0  0  0  0  0  0  0  0
    0.9138    0.8298    0.0000 C   0  0  0  0  0  0  0  0  0  0  0  0
    2.3309    0.3379    0.0000 C   0  0  0  0  0  0  0  0  0  0  0  0
    3.4654    1.3192    0.0000 C   0  0  0  0  0  0  0  0  0  0  0  0
    3.1828    2.7924    0.0000 C   0  0  0  0  0  0  0  0  0  0  0  0
    1.7657    3.2842    0.0000 C   0  0  0  0  0  0  0  0  0  0  0  0
    0.6312    2.3029    0.0000 C   0  0  0  0  0  0  0  0  0  0  0  0
    0.7606   -1.2860    0.0000 C   0  0  0  0  0  0  0  0  0  0  0  0
    2.2338   -1.0034    0.0000 C   0  0  0  0  0  0  0  0  0  0  0  0
    3.2150   -2.1379    0.0000 C   0  0  0  0  0  0  0  0  0  0  0  0
    2.7232   -3.5550    0.0000 C   0  0  0  0  0  0  0  0  0  0  0  0
    1.2500   -3.8376    0.0000 C   0  0  0  0  0  0  0  0  0  0  0  0
    0.2688   -2.7031    0.0000 C   0  0  0  0  0  0  0  0  0  0  0  0
  1  2  1  0
  2  3  1  0
  3  4  1  6
  3  5  1  0
  5  6  1  0
  6  7  1  0
  7  8  1  6
  7  9  1  0
  9 10  1  0
  5 11  1  0
 11 12  2  0
 12 13  1  0
 13 14  2  0
 14 15  1  0
 15 16  2  0
  5 17  1  0
 17 18  2  0
 18 19  1  0
 19 20  2  0
 20 21  1  0
 21 22  2  0
 16 11  1  0
 22 17  1  0
M  END
> <Identifier>
NORACETYLMETHADOL

> <hERG>
1

$$$$

     RDKit          2D

 24 28  0  0  0  0  0  0  0  0999 V2000
   -1.3981    1.4103    0.0000 O   0  0  0  0  0  0  0  0  0  0  0  0
   -1.5983   -0.0763    0.0000 C   0  0  0  0  0  0  0  0  0  0  0  0
   -0.4110   -0.9930    0.0000 O   0  0  0  0  0  0  0  0  0  0  0  0
    0.9765   -0.4232    0.0000 C   0  0  0  0  0  0  0  0  0  0  0  0
    2.1638   -1.3399    0.0000 C   0  0  0  0  0  0  0  0  0  0  0  0
    3.5513   -0.7700    0.0000 C   0  0  0  0  0  0  0  0  0  0  0  0
    4.7386   -1.6867    0.0000 C   0  0  0  0  0  0  0  0  0  0  0  0
    6.1261   -1.1169    0.0000 C   0  0  0  0  0  0  0  0  0  0  0  0
    4.3911    0.0750    0.0000 C   0  0  0  0  0  0  0  0  0  0  0  0
    2.5643    1.6333    0.0000 C   0  0  0  0  0  0  0  0  0  0  0  0
    1.1767    1.0634    0.0000 C   0  0  0  0  0  0  0  0  0  0  0  0
    3.7516    0.7166    0.0000 N   0  0  0  0  0  4  0  0  0  0  0  0
    5.1391    1.2864    0.0000 C   0  0  0  0  0  0  0  0  0  0  0  0
    6.3264    0.3697    0.0000 C   0  0  0  0  0  0  0  0  0  0  0  0
    7.7139    0.9396    0.0000 O   0  0  0  0  0  0  0  0  0  0  0  0
   -2.9859   -0.6462    0.0000 C   0  0  0  0  0  0  0  0  0  0  0  0
   -3.3404   -2.1037    0.0000 C   0  0  0  0  0  0  0  0  0  0  0  0
   -4.8361   -2.2168    0.0000 N   0  0  0  0  0  0  0  0  0  0  0  0
   -5.4060   -0.8293    0.0000 C   0  0  0  0  0  0  0  0  0  0  0  0
   -6.8184   -0.3244    0.0000 C   0  0  0  0  0  0  0  0  0  0  0  0
   -7.0874    1.1513    0.0000 C   0  0  0  0  0  0  0  0  0  0  0  0
   -5.9438    2.1221    0.0000 C   0  0  0  0  0  0  0  0  0  0  0  0
   -4.5314    1.6171    0.0000 C   0  0  0  0  0  0  0  0  0  0  0  0
   -4.2625    0.1414    0.0000 C   0  0  0  0  0  0  0  0  0  0  0  0
  1  2  2  0
  2  3  1  0
  3  4  1  0
  4  5  1  0
  6  5  1  1
  6  7  1  0
  7  8  1  0
  8  9  1  0
  9 10  1  0
 10 11  1  6
 10 12  1  0
 12 13  1  0
 13 14  1  0
 14 15  1  6
  2 16  1  0
 16 17  2  0
 17 18  1  0
 18 19  1  0
 19 20  2  0
 20 21  1  0
 21 22  2  0
 22 23  1  0
 23 24  2  0
 11  4  1  0
 24 16  1  0
 12  6  1  0
 24 19  1  0
 14  8  1  0
M  CHG  1  12   1
M  END
> <Identifier>
MDL_74156

> <hERG>
1

$$$$

     RDKit          2D

 32 36  0  0  0  0  0  0  0  0999 V2000
   -1.4536    0.8192    0.0000 O   0  0  0  0  0  0  0  0  0  0  0  0
   -2.2800   -0.4327    0.0000 C   0  0  0  0  0  0  0  0  0  0  0  0
   -1.6091   -1.7743    0.0000 N   0  0  0  0  0  0  0  0  0  0  0  0
   -0.1118   -1.8640    0.0000 C   0  0  0  0  0  0  0  0  0  0  0  0
    0.5592   -3.2056    0.0000 C   0  0  0  0  0  0  0  0  0  0  0  0
    2.0565   -3.2954    0.0000 C   0  0  0  0  0  0  0  0  0  0  0  0
    2.8829   -2.0436    0.0000 N   0  0  0  0  0  0  0  0  0  0  0  0
    4.3802   -2.1333    0.0000 C   0  0  0  0  0  0  0  0  0  0  0  0
    5.2066   -0.8815    0.0000 C   0  0  0  0  0  0  0  0  0  0  0  0
    4.5357    0.4601    0.0000 C   0  0  0  0  0  0  0  0  0  0  0  0
    5.3621    1.7119    0.0000 C   0  0  0  0  0  0  0  0  0  0  0  0
    6.8594    1.6222    0.0000 C   0  0  0  0  0  0  0  0  0  0  0  0
    7.5303    0.2806    0.0000 C   0  0  0  0  0  0  0  0  0  0  0  0
    6.7039   -0.9713    0.0000 C   0  0  0  0  0  0  0  0  0  0  0  0
    9.0276    0.1908    0.0000 O   0  0  0  0  0  0  0  0  0  0  0  0
    9.8540    1.4426    0.0000 C   0  0  0  0  0  0  0  0  0  0  0  0
    9.1831    2.7842    0.0000 C   0  0  0  0  0  0  0  0  0  0  0  0
    7.6858    2.8740    0.0000 O   0  0  0  0  0  0  0  0  0  0  0  0
    2.2120   -0.7020    0.0000 C   0  0  0  0  0  0  0  0  0  0  0  0
    0.7146   -0.6122    0.0000 C   0  0  0  0  0  0  0  0  0  0  0  0
   -3.7773   -0.3429    0.0000 C   0  0  0  0  0  0  0  0  0  0  0  0
   -4.6037   -1.5947    0.0000 C   0  0  0  0  0  0  0  0  0  0  0  0
   -6.1010   -1.5050    0.0000 C   0  0  0  0  0  0  0  0  0  0  0  0
   -6.9274   -2.7568    0.0000 O   0  0  0  0  0  0  0  0  0  0  0  0
   -6.7719   -0.1634    0.0000 C   0  0  0  0  0  0  0  0  0  0  0  0
   -8.2692   -0.0736    0.0000 C   0  0  0  0  0  0  0  0  0  0  0  0
   -8.9401    1.2680    0.0000 C   0  0  0  0  0  0  0  0  0  0  0  0
   -8.1137    2.5198    0.0000 C   0  0  0  0  0  0  0  0  0  0  0  0
   -8.7847    3.8614    0.0000 F   0  0  0  0  0  0  0  0  0  0  0  0
   -6.6164    2.4301    0.0000 C   0  0  0  0  0  0  0  0  0  0  0  0
   -5.9455    1.0885    0.0000 C   0  0  0  0  0  0  0  0  0  0  0  0
   -4.4482    0.9987    0.0000 O   0  0  0  0  0  0  0  0  0  0  0  0
  1  2  2  0
  2  3  1  0
  3  4  1  0
  4  5  1  0
  5  6  1  0
  6  7  1  0
  7  8  1  0
  8  9  1  0
  9 10  2  0
 10 11  1  0
 11 12  2  0
 12 13  1  0
 13 14  2  0
 13 15  1  0
 15 16  1  0
 16 17  1  0
 17 18  1  0
  7 19  1  0
 19 20  1  0
  2 21  1  0
 21 22  2  0
 22 23  1  0
 23 24  2  0
 23 25  1  0
 25 26  2  0
 26 27  1  0
 27 28  2  0
 28 29  1  0
 28 30  1  0
 30 31  2  0
 31 32  1  0
 20  4  1  0
 32 21  1  0
 14  9  1  0
 31 25  1  0
 18 12  1  0
M  END
> <Identifier>
JMC20066569-44

> <hERG>
1

$$$$

     RDKit          2D

 28 29  0  0  0  0  0  0  0  0999 V2000
  -11.1831    0.7466    0.0000 C   0  0  0  0  0  0  0  0  0  0  0  0
  -10.0719   -0.2610    0.0000 O   0  0  0  0  0  0  0  0  0  0  0  0
   -8.6437    0.1975    0.0000 C   0  0  0  0  0  0  0  0  0  0  0  0
   -8.3266    1.6636    0.0000 C   0  0  0  0  0  0  0  0  0  0  0  0
   -6.8984    2.1221    0.0000 C   0  0  0  0  0  0  0  0  0  0  0  0
   -5.7873    1.1145    0.0000 C   0  0  0  0  0  0  0  0  0  0  0  0
   -4.3590    1.5730    0.0000 C   0  0  0  0  0  0  0  0  0  0  0  0
   -3.2479    0.5653    0.0000 C   0  0  0  0  0  0  0  0  0  0  0  0
   -1.8197    1.0238    0.0000 N   0  0  0  0  0  0  0  0  0  0  0  0
   -0.7085    0.0162    0.0000 C   0  0  0  0  0  0  0  0  0  0  0  0
    0.7197    0.4747    0.0000 C   0  0  0  0  0  0  0  0  0  0  0  0
    1.8309   -0.5330    0.0000 C   0  0  0  0  0  0  0  0  0  0  0  0
    3.2591   -0.0745    0.0000 N   0  0  0  0  0  0  0  0  0  0  0  0
    4.3703   -1.0821    0.0000 C   0  0  0  0  0  0  0  0  0  0  0  0
    4.0532   -2.5482    0.0000 O   0  0  0  0  0  0  0  0  0  0  0  0
    5.7985   -0.6236    0.0000 C   0  0  0  0  0  0  0  0  0  0  0  0
    6.9096   -1.6312    0.0000 C   0  0  0  0  0  0  0  0  0  0  0  0
    8.3379   -1.1727    0.0000 C   0  0  0  0  0  0  0  0  0  0  0  0
    8.6549    0.2934    0.0000 C   0  0  0  0  0  0  0  0  0  0  0  0
   10.0831    0.7519    0.0000 N   0  0  0  0  0  4  0  0  0  0  0  0
   10.4002    2.2180    0.0000 O   0  0  0  0  0  0  0  0  0  0  0  0
   11.1943   -0.2558    0.0000 O   0  0  0  0  0  1  0  0  0  0  0  0
    7.5437    1.3010    0.0000 C   0  0  0  0  0  0  0  0  0  0  0  0
    6.1155    0.8425    0.0000 C   0  0  0  0  0  0  0  0  0  0  0  0
   -6.1043   -0.3516    0.0000 C   0  0  0  0  0  0  0  0  0  0  0  0
   -7.5325   -0.8101    0.0000 C   0  0  0  0  0  0  0  0  0  0  0  0
   -7.8496   -2.2762    0.0000 O   0  0  0  0  0  0  0  0  0  0  0  0
   -6.7384   -3.2839    0.0000 C   0  0  0  0  0  0  0  0  0  0  0  0
  1  2  1  0
  2  3  1  0
  3  4  2  0
  4  5  1  0
  5  6  2  0
  6  7  1  0
  7  8  1  0
  8  9  1  0
  9 10  1  0
 10 11  1  0
 11 12  1  0
 12 13  1  0
 13 14  1  0
 14 15  2  0
 14 16  1  0
 16 17  2  0
 17 18  1  0
 18 19  2  0
 19 20  1  0
 20 21  2  0
 20 22  1  0
 19 23  1  0
 23 24  2  0
  6 25  1  0
 25 26  2  0
 26 27  1  0
 27 28  1  0
 26  3  1  0
 24 16  1  0
M  CHG  2  20   1  22  -1
M  END
> <Identifier>
SB-237376

> <hERG>
1

$$$$

     RDKit          2D

 29 31  0  0  0  0  0  0  0  0999 V2000
    3.0972   -3.1264    0.0000 C   0  0  0  0  0  0  0  0  0  0  0  0
    1.7312   -2.5068    0.0000 C   0  0  0  0  0  0  0  0  0  0  0  0
    0.5116   -3.3800    0.0000 C   0  0  0  0  0  0  0  0  0  0  0  0
    0.6580   -4.8728    0.0000 C   0  0  0  0  0  0  0  0  0  0  0  0
   -0.8545   -2.7604    0.0000 C   0  0  0  0  0  0  0  0  0  0  0  0
   -2.0741   -3.6336    0.0000 O   0  0  0  0  0  0  0  0  0  0  0  0
   -1.0009   -1.2676    0.0000 O   0  0  0  0  0  0  0  0  0  0  0  0
   -2.3670   -0.6479    0.0000 C   0  0  0  0  0  0  0  0  0  0  0  0
   -3.5866   -1.5212    0.0000 C   0  0  0  0  0  0  0  0  0  0  0  0
   -4.9526   -0.9016    0.0000 C   0  0  0  0  0  0  0  0  0  0  0  0
   -6.1722   -1.7748    0.0000 C   0  0  0  0  0  0  0  0  0  0  0  0
   -5.0990    0.5913    0.0000 C   0  0  0  0  0  0  0  0  0  0  0  0
   -3.8794    1.4645    0.0000 C   0  0  0  0  0  0  0  0  0  0  0  0
   -4.0259    2.9573    0.0000 C   0  0  0  0  0  0  0  0  0  0  0  0
   -2.8062    3.8306    0.0000 C   0  0  0  0  0  0  0  0  0  0  0  0
   -1.4402    3.2110    0.0000 C   0  0  0  0  0  0  0  0  0  0  0  0
   -0.2206    4.0842    0.0000 C   0  0  0  0  0  0  0  0  0  0  0  0
   -1.2938    1.7181    0.0000 C   0  0  0  0  0  0  0  0  0  0  0  0
    0.0723    1.0985    0.0000 C   0  0  0  0  0  0  0  0  0  0  0  0
    1.2919    1.9717    0.0000 C   0  0  0  0  0  0  0  0  0  0  0  0
    2.6580    1.3521    0.0000 C   0  0  0  0  0  0  0  0  0  0  0  0
    3.8776    2.2254    0.0000 C   0  0  0  0  0  0  0  0  0  0  0  0
    5.2436    1.6058    0.0000 C   0  0  0  0  0  0  0  0  0  0  0  0
    6.4632    2.4790    0.0000 O   0  0  0  0  0  0  0  0  0  0  0  0
    5.3901    0.1129    0.0000 C   0  0  0  0  0  0  0  0  0  0  0  0
    4.1704   -0.7603    0.0000 C   0  0  0  0  0  0  0  0  0  0  0  0
    4.3169   -2.2531    0.0000 O   0  0  0  0  0  0  0  0  0  0  0  0
    2.8044   -0.1407    0.0000 O   0  0  0  0  0  0  0  0  0  0  0  0
   -2.5134    0.8449    0.0000 C   0  0  0  0  0  0  0  0  0  0  0  0
  1  2  1  0
  2  3  1  0
  3  4  1  1
  3  5  1  0
  5  6  2  0
  5  7  1  0
  8  7  1  6
  8  9  1  0
  9 10  1  0
 10 11  1  1
 10 12  1  0
 12 13  2  0
 13 14  1  0
 14 15  2  0
 15 16  1  0
 16 17  1  1
 16 18  1  0
 18 19  1  1
 19 20  1  0
 21 20  1  6
 21 22  1  0
 22 23  1  0
 23 24  1  1
 23 25  1  0
 25 26  1  0
 26 27  2  0
 26 28  1  0
 18 29  1  0
 29  8  1  0
 29 13  1  1
 28 21  1  0
M  END
> <Identifier>
LOVASTATIN

> <hERG>
1

$$$$

     RDKit          2D

 16 16  0  0  0  0  0  0  0  0999 V2000
    1.6691   -3.5663    0.0000 C   0  0  0  0  0  0  0  0  0  0  0  0
    0.3291   -2.8921    0.0000 C   0  0  0  0  0  0  0  0  0  0  0  0
    0.2429   -1.3946    0.0000 C   0  0  0  0  0  0  0  0  0  0  0  0
   -1.0971   -0.7205    0.0000 C   0  0  0  0  0  0  0  0  0  0  0  0
   -2.3509   -1.5439    0.0000 C   0  0  0  0  0  0  0  0  0  0  0  0
   -3.6909   -0.8697    0.0000 C   0  0  0  0  0  0  0  0  0  0  0  0
   -3.7770    0.6278    0.0000 C   0  0  0  0  0  0  0  0  0  0  0  0
   -2.5232    1.4512    0.0000 C   0  0  0  0  0  0  0  0  0  0  0  0
   -2.6094    2.9487    0.0000 O   0  0  0  0  0  0  0  0  0  0  0  0
   -1.1833    0.7771    0.0000 C   0  0  0  0  0  0  0  0  0  0  0  0
    1.4967   -0.5712    0.0000 C   0  0  0  0  0  0  0  0  0  0  0  0
    2.8367   -1.2453    0.0000 C   0  0  0  0  0  0  0  0  0  0  0  0
    1.4105    0.9263    0.0000 C   0  0  0  0  0  0  0  0  0  0  0  0
    2.6643    1.7497    0.0000 N   0  0  0  0  0  0  0  0  0  0  0  0
    2.5782    3.2472    0.0000 C   0  0  0  0  0  0  0  0  0  0  0  0
    4.0043    1.0756    0.0000 C   0  0  0  0  0  0  0  0  0  0  0  0
  1  2  1  0
  3  2  1  1
  3  4  1  0
  4  5  2  0
  5  6  1  0
  6  7  2  0
  7  8  1  0
  8  9  1  0
  8 10  2  0
  3 11  1  0
 11 12  1  6
 11 13  1  0
 13 14  1  0
 14 15  1  0
 14 16  1  0
 10  4  1  0
M  END
> <Identifier>
TAPENTADOL

> <hERG>
1

$$$$

     RDKit          2D

 34 37  0  0  0  0  0  0  0  0999 V2000
   -8.5842    1.9503    0.0000 C   0  0  0  0  0  0  0  0  0  0  0  0
   -7.8401    0.6478    0.0000 C   0  0  0  0  0  0  0  0  0  0  0  0
   -6.3402    0.6409    0.0000 C   0  0  0  0  0  0  0  0  0  0  0  0
   -5.5962   -0.6616    0.0000 C   0  0  0  0  0  0  0  0  0  0  0  0
   -6.2126   -2.0290    0.0000 N   0  0  0  0  0  0  0  0  0  0  0  0
   -5.1025   -3.0379    0.0000 C   0  0  0  0  0  0  0  0  0  0  0  0
   -5.2661   -4.5289    0.0000 C   0  0  0  0  0  0  0  0  0  0  0  0
   -3.8000   -2.2939    0.0000 C   0  0  0  0  0  0  0  0  0  0  0  0
   -2.3756   -2.7639    0.0000 C   0  0  0  0  0  0  0  0  0  0  0  0
   -2.0705   -4.2326    0.0000 O   0  0  0  0  0  0  0  0  0  0  0  0
   -1.2562   -1.7654    0.0000 N   0  0  0  0  0  0  0  0  0  0  0  0
   -1.5613   -0.2967    0.0000 C   0  0  0  0  0  0  0  0  0  0  0  0
   -0.4420    0.7018    0.0000 C   0  0  0  0  0  0  0  0  0  0  0  0
    0.9824    0.2317    0.0000 C   0  0  0  0  0  0  0  0  0  0  0  0
    2.1017    1.2303    0.0000 C   0  0  0  0  0  0  0  0  0  0  0  0
    3.5262    0.7602    0.0000 S   0  0  0  0  0  0  0  0  0  0  0  0
    3.0561   -0.6643    0.0000 O   0  0  0  0  0  0  0  0  0  0  0  0
    3.9963    2.1846    0.0000 O   0  0  0  0  0  0  0  0  0  0  0  0
    4.9506    0.2901    0.0000 N   0  0  0  0  0  0  0  0  0  0  0  0
    5.2557   -1.1785    0.0000 C   0  0  0  0  0  0  0  0  0  0  0  0
    6.6802   -1.6486    0.0000 C   0  0  0  0  0  0  0  0  0  0  0  0
    7.7995   -0.6501    0.0000 N   0  0  0  0  0  4  0  0  0  0  0  0
    9.2239   -1.1202    0.0000 C   0  0  0  0  0  0  0  0  0  0  0  0
    9.5290   -2.5888    0.0000 C   0  0  0  0  0  0  0  0  0  0  0  0
    7.4944    0.8186    0.0000 C   0  0  0  0  0  0  0  0  0  0  0  0
    6.0699    1.2886    0.0000 C   0  0  0  0  0  0  0  0  0  0  0  0
    1.7966    2.6989    0.0000 C   0  0  0  0  0  0  0  0  0  0  0  0
    0.3722    3.1690    0.0000 C   0  0  0  0  0  0  0  0  0  0  0  0
   -0.7471    2.1704    0.0000 C   0  0  0  0  0  0  0  0  0  0  0  0
   -2.1716    2.6405    0.0000 O   0  0  0  0  0  0  0  0  0  0  0  0
   -2.4767    4.1092    0.0000 C   0  0  0  0  0  0  0  0  0  0  0  0
   -3.9011    4.5793    0.0000 C   0  0  0  0  0  0  0  0  0  0  0  0
   -2.9858    0.1733    0.0000 N   0  0  0  0  0  0  0  0  0  0  0  0
   -4.1051   -0.8252    0.0000 N   0  0  0  0  0  0  0  0  0  0  0  0
  1  2  1  0
  2  3  1  0
  3  4  1  0
  4  5  2  0
  5  6  1  0
  6  7  1  0
  6  8  2  0
  8  9  1  0
  9 10  2  0
  9 11  1  0
 11 12  2  0
 12 13  1  0
 13 14  2  0
 14 15  1  0
 15 16  1  0
 16 17  2  0
 16 18  2  0
 16 19  1  0
 19 20  1  0
 20 21  1  0
 21 22  1  0
 22 23  1  0
 23 24  1  0
 22 25  1  0
 25 26  1  0
 15 27  2  0
 27 28  1  0
 28 29  2  0
 29 30  1  0
 30 31  1  0
 31 32  1  0
 12 33  1  0
 33 34  1  0
 34  4  1  0
 34  8  1  0
 29 13  1  0
 26 19  1  0
M  CHG  1  22   1
M  END
> <Identifier>
VARDENAFIL

> <hERG>
1

$$$$

     RDKit          2D

 37 41  0  0  0  0  0  0  0  0999 V2000
  -10.6705    3.2422    0.0000 C   0  0  0  0  0  0  0  0  0  0  0  0
   -9.7174    2.0839    0.0000 S   0  0  0  0  0  0  0  0  0  0  0  0
  -10.8756    1.1308    0.0000 O   0  0  0  0  0  0  0  0  0  0  0  0
   -8.5591    3.0371    0.0000 O   0  0  0  0  0  0  0  0  0  0  0  0
   -8.7642    0.9257    0.0000 N   0  0  0  0  0  0  0  0  0  0  0  0
   -7.2846    1.1720    0.0000 C   0  0  0  0  0  0  0  0  0  0  0  0
   -6.3315    0.0138    0.0000 C   0  0  0  0  0  0  0  0  0  0  0  0
   -6.8580   -1.3908    0.0000 N   0  0  0  0  0  0  0  0  0  0  0  0
   -5.9048   -2.5491    0.0000 C   0  0  0  0  0  0  0  0  0  0  0  0
   -4.4252   -2.3027    0.0000 C   0  0  0  0  0  0  0  0  0  0  0  0
   -3.4720   -3.4610    0.0000 C   0  0  0  0  0  0  0  0  0  0  0  0
   -1.9924   -3.2147    0.0000 C   0  0  0  0  0  0  0  0  0  0  0  0
   -1.4659   -1.8101    0.0000 C   0  0  0  0  0  0  0  0  0  0  0  0
   -2.4190   -0.6519    0.0000 C   0  0  0  0  0  0  0  0  0  0  0  0
   -3.8987   -0.8982    0.0000 C   0  0  0  0  0  0  0  0  0  0  0  0
   -1.8925    0.7527    0.0000 C   0  0  0  0  0  0  0  0  0  0  0  0
   -0.4129    0.9990    0.0000 C   0  0  0  0  0  0  0  0  0  0  0  0
    0.5402   -0.1592    0.0000 C   0  0  0  0  0  0  0  0  0  0  0  0
    2.0199    0.0871    0.0000 N   0  0  0  0  0  0  0  0  0  0  0  0
    2.9730   -1.0711    0.0000 C   0  0  0  0  0  0  0  0  0  0  0  0
    4.4526   -0.8248    0.0000 C   0  0  0  0  0  0  0  0  0  0  0  0
    4.9791    0.5797    0.0000 N   0  0  0  0  0  0  0  0  0  0  0  0
    6.4588    0.8261    0.0000 C   0  0  0  0  0  0  0  0  0  0  0  0
    7.4119   -0.3322    0.0000 C   0  0  0  0  0  0  0  0  0  0  0  0
    8.8916   -0.0859    0.0000 C   0  0  0  0  0  0  0  0  0  0  0  0
    9.8447   -1.2441    0.0000 C   0  0  0  0  0  0  0  0  0  0  0  0
   11.3243   -0.9978    0.0000 C   0  0  0  0  0  0  0  0  0  0  0  0
   11.8508    0.4068    0.0000 C   0  0  0  0  0  0  0  0  0  0  0  0
   13.3305    0.6531    0.0000 F   0  0  0  0  0  0  0  0  0  0  0  0
   10.8977    1.5650    0.0000 C   0  0  0  0  0  0  0  0  0  0  0  0
    9.4181    1.3187    0.0000 C   0  0  0  0  0  0  0  0  0  0  0  0
    4.0260    1.7380    0.0000 C   0  0  0  0  0  0  0  0  0  0  0  0
    2.5464    1.4917    0.0000 C   0  0  0  0  0  0  0  0  0  0  0  0
    1.5932    2.6499    0.0000 O   0  0  0  0  0  0  0  0  0  0  0  0
    0.0137   -1.5638    0.0000 C   0  0  0  0  0  0  0  0  0  0  0  0
   -8.3376   -1.6371    0.0000 C   0  0  0  0  0  0  0  0  0  0  0  0
   -9.2907   -0.4789    0.0000 C   0  0  0  0  0  0  0  0  0  0  0  0
  1  2  1  0
  2  3  2  0
  2  4  2  0
  2  5  1  0
  5  6  1  0
  6  7  1  0
  7  8  1  0
  8  9  1  0
  9 10  1  0
 10 11  2  0
 11 12  1  0
 12 13  2  0
 13 14  1  0
 14 15  2  0
 14 16  1  0
 16 17  1  0
 17 18  1  0
 18 19  1  6
 19 20  1  0
 20 21  1  0
 21 22  1  0
 22 23  1  0
 23 24  1  0
 24 25  1  0
 25 26  2  0
 26 27  1  0
 27 28  2  0
 28 29  1  0
 28 30  1  0
 30 31  2  0
 22 32  1  0
 32 33  1  0
 33 34  2  0
 18 35  1  0
  8 36  1  0
 36 37  1  0
 37  5  1  0
 15 10  1  0
 33 19  1  0
 35 13  1  0
 31 25  1  0
M  END
> <Identifier>
AMINOMETHYL TETRAHYDRONAPHTHALENE KETOPIPERAZINE 4F

> <hERG>
1

$$$$

     RDKit          2D

 32 36  0  0  0  0  0  0  0  0999 V2000
    2.0555   -2.7598    0.0000 O   0  0  0  0  0  0  0  0  0  0  0  0
    2.4567   -1.3144    0.0000 C   0  0  0  0  0  0  0  0  0  0  0  0
    1.4056   -0.2443    0.0000 N   0  0  0  0  0  0  0  0  0  0  0  0
   -0.0467   -0.6195    0.0000 C   0  0  0  0  0  0  0  0  0  0  0  0
   -1.0978    0.4507    0.0000 C   0  0  0  0  0  0  0  0  0  0  0  0
   -2.5501    0.0755    0.0000 C   0  0  0  0  0  0  0  0  0  0  0  0
   -2.9513   -1.3698    0.0000 N   0  0  0  0  0  0  0  0  0  0  0  0
   -4.4037   -1.7450    0.0000 C   0  0  0  0  0  0  0  0  0  0  0  0
   -5.4547   -0.6749    0.0000 C   0  0  0  0  0  0  0  0  0  0  0  0
   -6.9071   -1.0501    0.0000 C   0  0  0  0  0  0  0  0  0  0  0  0
   -7.9581    0.0201    0.0000 C   0  0  0  0  0  0  0  0  0  0  0  0
   -7.5569    1.4654    0.0000 C   0  0  0  0  0  0  0  0  0  0  0  0
   -6.1046    1.8406    0.0000 C   0  0  0  0  0  0  0  0  0  0  0  0
   -5.0535    0.7705    0.0000 C   0  0  0  0  0  0  0  0  0  0  0  0
   -3.6012    1.1457    0.0000 Cl  0  0  0  0  0  0  0  0  0  0  0  0
   -8.8075    2.2937    0.0000 O   0  0  0  0  0  0  0  0  0  0  0  0
   -9.9817    1.3602    0.0000 C   0  0  0  0  0  0  0  0  0  0  0  0
   -9.4567   -0.0450    0.0000 O   0  0  0  0  0  0  0  0  0  0  0  0
   -1.9003   -2.4400    0.0000 C   0  0  0  0  0  0  0  0  0  0  0  0
   -0.4479   -2.0648    0.0000 C   0  0  0  0  0  0  0  0  0  0  0  0
    3.9090   -0.9392    0.0000 C   0  0  0  0  0  0  0  0  0  0  0  0
    4.9601   -2.0094    0.0000 C   0  0  0  0  0  0  0  0  0  0  0  0
    6.4124   -1.6342    0.0000 C   0  0  0  0  0  0  0  0  0  0  0  0
    7.4635   -2.7043    0.0000 O   0  0  0  0  0  0  0  0  0  0  0  0
    6.8137   -0.1888    0.0000 C   0  0  0  0  0  0  0  0  0  0  0  0
    8.2660    0.1863    0.0000 C   0  0  0  0  0  0  0  0  0  0  0  0
    8.6672    1.6317    0.0000 C   0  0  0  0  0  0  0  0  0  0  0  0
    7.6161    2.7018    0.0000 C   0  0  0  0  0  0  0  0  0  0  0  0
    8.0174    4.1472    0.0000 F   0  0  0  0  0  0  0  0  0  0  0  0
    6.1638    2.3266    0.0000 C   0  0  0  0  0  0  0  0  0  0  0  0
    5.7626    0.8813    0.0000 C   0  0  0  0  0  0  0  0  0  0  0  0
    4.3103    0.5061    0.0000 O   0  0  0  0  0  0  0  0  0  0  0  0
  1  2  2  0
  2  3  1  0
  3  4  1  0
  4  5  1  0
  5  6  1  0
  6  7  1  0
  7  8  1  0
  8  9  1  0
  9 10  2  0
 10 11  1  0
 11 12  2  0
 12 13  1  0
 13 14  2  0
 14 15  1  0
 12 16  1  0
 16 17  1  0
 17 18  1  0
  7 19  1  0
 19 20  1  0
  2 21  1  0
 21 22  2  0
 22 23  1  0
 23 24  2  0
 23 25  1  0
 25 26  2  0
 26 27  1  0
 27 28  2  0
 28 29  1  0
 28 30  1  0
 30 31  2  0
 31 32  1  0
 20  4  1  0
 32 21  1  0
 14  9  1  0
 31 25  1  0
 18 11  1  0
M  END
> <Identifier>
JMC20066569-43

> <hERG>
1

$$$$

     RDKit          2D

 25 28  0  0  0  0  0  0  0  0999 V2000
   -7.8252   -1.7222    0.0000 C   0  0  0  0  0  0  0  0  0  0  0  0
   -6.4702   -1.0788    0.0000 C   0  0  0  0  0  0  0  0  0  0  0  0
   -6.1943    0.3956    0.0000 C   0  0  0  0  0  0  0  0  0  0  0  0
   -4.7067    0.5887    0.0000 N   0  0  0  0  0  0  0  0  0  0  0  0
   -3.8549    1.8234    0.0000 C   0  0  0  0  0  0  0  0  0  0  0  0
   -2.3598    1.7030    0.0000 C   0  0  0  0  0  0  0  0  0  0  0  0
   -1.7164    0.3480    0.0000 N   0  0  0  0  0  0  0  0  0  0  0  0
   -0.2212    0.2277    0.0000 C   0  0  0  0  0  0  0  0  0  0  0  0
    0.6306    1.4624    0.0000 C   0  0  0  0  0  0  0  0  0  0  0  0
    1.9944    0.8379    0.0000 C   0  0  0  0  0  0  0  0  0  0  0  0
    3.2171    1.7068    0.0000 C   0  0  0  0  0  0  0  0  0  0  0  0
    4.5809    1.0823    0.0000 C   0  0  0  0  0  0  0  0  0  0  0  0
    4.7221   -0.4110    0.0000 C   0  0  0  0  0  0  0  0  0  0  0  0
    6.0859   -1.0355    0.0000 C   0  0  0  0  0  0  0  0  0  0  0  0
    7.4497   -1.6599    0.0000 F   0  0  0  0  0  0  0  0  0  0  0  0
    6.7104    0.3284    0.0000 F   0  0  0  0  0  0  0  0  0  0  0  0
    5.4614   -2.3993    0.0000 F   0  0  0  0  0  0  0  0  0  0  0  0
    3.4993   -1.2799    0.0000 C   0  0  0  0  0  0  0  0  0  0  0  0
    2.1355   -0.6554    0.0000 C   0  0  0  0  0  0  0  0  0  0  0  0
    1.0087    2.9139    0.0000 C   0  0  0  0  0  0  0  0  0  0  0  0
   -0.4375    2.5156    0.0000 C   0  0  0  0  0  0  0  0  0  0  0  0
   -2.5682   -0.8867    0.0000 C   0  0  0  0  0  0  0  0  0  0  0  0
   -1.9248   -2.2417    0.0000 O   0  0  0  0  0  0  0  0  0  0  0  0
   -4.0634   -0.7663    0.0000 C   0  0  0  0  0  0  0  0  0  0  0  0
   -5.1533   -1.7969    0.0000 N   0  0  0  0  0  0  0  0  0  0  0  0
  1  2  1  0
  2  3  2  0
  3  4  1  0
  4  5  1  0
  5  6  2  0
  6  7  1  0
  7  8  1  0
  8  9  1  0
  9 10  1  0
 10 11  2  0
 11 12  1  0
 12 13  2  0
 13 14  1  0
 14 15  1  0
 14 16  1  0
 14 17  1  0
 13 18  1  0
 18 19  2  0
  9 20  1  0
 20 21  1  0
  7 22  1  0
 22 23  2  0
 22 24  1  0
 24 25  2  0
 25  2  1  0
 24  4  1  0
 21  9  1  0
 19 10  1  0
M  END
> <Identifier>
2-METHYL-7-({1-[4-(TRIFLUOROMETHYL)PHENYL]CYCLOPROPYL}METHYL)IMIDAZO[1,2-A]PYRAZIN-8(7H)-ONE HYDROCHLORIDE

> <hERG>
1

$$$$

     RDKit          2D

 21 24  0  0  0  0  0  0  0  0999 V2000
   -2.3222   -4.4828    0.0000 C   0  0  0  0  0  0  0  0  0  0  0  0
   -1.3757   -3.3192    0.0000 C   0  0  0  0  0  0  0  0  0  0  0  0
   -1.7607   -1.8694    0.0000 C   0  0  0  0  0  0  0  0  0  0  0  0
   -0.5008   -1.0553    0.0000 C   0  0  0  0  0  0  0  0  0  0  0  0
    0.6628   -2.0018    0.0000 C   0  0  0  0  0  0  0  0  0  0  0  0
    0.1221   -3.4010    0.0000 S   0  0  0  0  0  0  0  0  0  0  0  0
    2.1283   -1.6823    0.0000 N   0  0  0  0  0  0  0  0  0  0  0  0
    2.7923   -0.3372    0.0000 C   0  0  0  0  0  0  0  0  0  0  0  0
    4.2869   -0.4638    0.0000 C   0  0  0  0  0  0  0  0  0  0  0  0
    5.1439    0.7673    0.0000 C   0  0  0  0  0  0  0  0  0  0  0  0
    4.5062    2.1250    0.0000 C   0  0  0  0  0  0  0  0  0  0  0  0
    3.0116    2.2516    0.0000 C   0  0  0  0  0  0  0  0  0  0  0  0
    2.1546    1.0205    0.0000 C   0  0  0  0  0  0  0  0  0  0  0  0
    0.6955    1.3685    0.0000 N   0  0  0  0  0  0  0  0  0  0  0  0
   -0.4863    0.4447    0.0000 C   0  0  0  0  0  0  0  0  0  0  0  0
   -1.8313    1.1086    0.0000 N   0  0  0  0  0  0  0  0  0  0  0  0
   -1.9289    2.6054    0.0000 C   0  0  0  0  0  0  0  0  0  0  0  0
   -3.2740    3.2693    0.0000 C   0  0  0  0  0  0  0  0  0  0  0  0
   -4.5215    2.4364    0.0000 N   0  0  0  0  0  0  0  0  0  0  0  0
   -4.4239    0.9396    0.0000 C   0  0  0  0  0  0  0  0  0  0  0  0
   -3.0788    0.2757    0.0000 C   0  0  0  0  0  0  0  0  0  0  0  0
  1  2  1  0
  2  3  2  0
  3  4  1  0
  4  5  2  0
  5  6  1  0
  5  7  1  0
  7  8  1  0
  8  9  2  0
  9 10  1  0
 10 11  2  0
 11 12  1  0
 12 13  2  0
 13 14  1  0
 14 15  2  0
 15 16  1  0
 16 17  1  0
 17 18  1  0
 18 19  1  0
 19 20  1  0
 20 21  1  0
  6  2  1  0
 13  8  1  0
 21 16  1  0
 15  4  1  0
M  END
> <Identifier>
N-DEMETHYLOLANZAPINE

> <hERG>
1

$$$$

     RDKit          2D

 33 36  0  0  0  0  0  0  0  0999 V2000
    4.6411   -3.5311    0.0000 C   0  0  0  0  0  0  0  0  0  0  0  0
    5.5814   -2.3624    0.0000 C   0  0  0  0  0  0  0  0  0  0  0  0
    5.0395   -0.9637    0.0000 S   0  0  0  0  0  0  0  0  0  0  0  0
    5.9798    0.2050    0.0000 C   0  0  0  0  0  0  0  0  0  0  0  0
    7.4621   -0.0250    0.0000 N   0  0  0  0  0  0  0  0  0  0  0  0
    8.4024    1.1436    0.0000 C   0  0  0  0  0  0  0  0  0  0  0  0
    7.8604    2.5423    0.0000 C   0  0  0  0  0  0  0  0  0  0  0  0
    6.3782    2.7723    0.0000 C   0  0  0  0  0  0  0  0  0  0  0  0
    5.4378    1.6036    0.0000 C   0  0  0  0  0  0  0  0  0  0  0  0
    3.9556    1.8336    0.0000 C   0  0  0  0  0  0  0  0  0  0  0  0
    3.4136    3.2323    0.0000 O   0  0  0  0  0  0  0  0  0  0  0  0
    3.0153    0.6649    0.0000 N   0  0  0  0  0  0  0  0  0  0  0  0
    3.4080   -0.7827    0.0000 C   0  0  0  0  0  0  0  0  0  0  0  0
    2.1526   -1.6036    0.0000 C   0  0  0  0  0  0  0  0  0  0  0  0
    0.9839   -0.6633    0.0000 C   0  0  0  0  0  0  0  0  0  0  0  0
   -0.4637   -1.0561    0.0000 N   0  0  0  0  0  4  0  0  0  0  0  0
   -0.8474   -2.5062    0.0000 C   0  0  0  0  0  0  0  0  0  0  0  0
   -2.2951   -2.8990    0.0000 C   0  0  0  0  0  0  0  0  0  0  0  0
   -2.8282   -4.3010    0.0000 C   0  0  0  0  0  0  0  0  0  0  0  0
   -4.3264   -4.2272    0.0000 N   0  0  0  0  0  0  0  0  0  0  0  0
   -4.7192   -2.7796    0.0000 C   0  0  0  0  0  0  0  0  0  0  0  0
   -3.4637   -1.9586    0.0000 N   0  0  0  0  0  0  0  0  0  0  0  0
   -3.3899   -0.4605    0.0000 C   0  0  0  0  0  0  0  0  0  0  0  0
   -4.6505    0.3525    0.0000 C   0  0  0  0  0  0  0  0  0  0  0  0
   -4.5767    1.8507    0.0000 C   0  0  0  0  0  0  0  0  0  0  0  0
   -5.8373    2.6637    0.0000 C   0  0  0  0  0  0  0  0  0  0  0  0
   -7.1716    1.9785    0.0000 C   0  0  0  0  0  0  0  0  0  0  0  0
   -8.4322    2.7915    0.0000 C   0  0  0  0  0  0  0  0  0  0  0  0
   -9.6928    3.6046    0.0000 N   0  0  0  0  0  0  0  0  0  0  0  0
   -7.2454    0.4804    0.0000 C   0  0  0  0  0  0  0  0  0  0  0  0
   -5.9849   -0.3326    0.0000 C   0  0  0  0  0  0  0  0  0  0  0  0
    1.5171    0.7387    0.0000 C   0  0  0  0  0  0  0  0  0  0  0  0
    0.6962    1.9942    0.0000 O   0  0  0  0  0  0  0  0  0  0  0  0
  1  2  1  0
  2  3  1  0
  3  4  1  0
  4  5  2  0
  5  6  1  0
  6  7  2  0
  7  8  1  0
  8  9  2  0
  9 10  1  0
 10 11  2  0
 10 12  1  0
 12 13  1  0
 13 14  1  0
 14 15  1  0
 15 16  1  1
 16 17  1  0
 17 18  1  0
 18 19  2  0
 19 20  1  0
 20 21  2  0
 21 22  1  0
 22 23  1  0
 23 24  1  0
 24 25  2  0
 25 26  1  0
 26 27  2  0
 27 28  1  0
 28 29  3  0
 27 30  1  0
 30 31  2  0
 15 32  1  0
 32 33  2  0
  9  4  1  0
 32 12  1  0
 22 18  1  0
 31 24  1  0
M  CHG  1  16   1
M  END
> <Identifier>
WOMBAT17

> <hERG>
1

$$$$

     RDKit          2D

 21 24  0  0  0  0  0  0  0  0999 V2000
   -2.3222   -4.4828    0.0000 C   0  0  0  0  0  0  0  0  0  0  0  0
   -1.3757   -3.3192    0.0000 C   0  0  0  0  0  0  0  0  0  0  0  0
   -1.7607   -1.8694    0.0000 C   0  0  0  0  0  0  0  0  0  0  0  0
   -0.5008   -1.0553    0.0000 C   0  0  0  0  0  0  0  0  0  0  0  0
    0.6628   -2.0018    0.0000 C   0  0  0  0  0  0  0  0  0  0  0  0
    0.1221   -3.4010    0.0000 S   0  0  0  0  0  0  0  0  0  0  0  0
    2.1283   -1.6823    0.0000 N   0  0  0  0  0  0  0  0  0  0  0  0
    2.7923   -0.3372    0.0000 C   0  0  0  0  0  0  0  0  0  0  0  0
    4.2869   -0.4638    0.0000 C   0  0  0  0  0  0  0  0  0  0  0  0
    5.1439    0.7673    0.0000 C   0  0  0  0  0  0  0  0  0  0  0  0
    4.5062    2.1250    0.0000 C   0  0  0  0  0  0  0  0  0  0  0  0
    3.0116    2.2516    0.0000 C   0  0  0  0  0  0  0  0  0  0  0  0
    2.1546    1.0205    0.0000 C   0  0  0  0  0  0  0  0  0  0  0  0
    0.6955    1.3685    0.0000 N   0  0  0  0  0  0  0  0  0  0  0  0
   -0.4863    0.4447    0.0000 C   0  0  0  0  0  0  0  0  0  0  0  0
   -1.8313    1.1086    0.0000 N   0  0  0  0  0  0  0  0  0  0  0  0
   -1.9289    2.6054    0.0000 C   0  0  0  0  0  0  0  0  0  0  0  0
   -3.2740    3.2693    0.0000 C   0  0  0  0  0  0  0  0  0  0  0  0
   -4.5215    2.4364    0.0000 N   0  0  0  0  0  0  0  0  0  0  0  0
   -4.4239    0.9396    0.0000 C   0  0  0  0  0  0  0  0  0  0  0  0
   -3.0788    0.2757    0.0000 C   0  0  0  0  0  0  0  0  0  0  0  0
  1  2  1  0
  2  3  2  0
  3  4  1  0
  4  5  1  0
  5  6  1  0
  5  7  2  0
  7  8  1  0
  8  9  2  0
  9 10  1  0
 10 11  2  0
 11 12  1  0
 12 13  2  0
 13 14  1  0
 14 15  1  0
 15 16  1  0
 16 17  1  0
 17 18  1  0
 18 19  1  0
 19 20  1  0
 20 21  1  0
  6  2  1  0
 13  8  1  0
 21 16  1  0
 15  4  2  0
M  END
> <Identifier>
4-DESMETHYLOLANZAPINE

> <hERG>
1

$$$$

     RDKit          2D

 21 24  0  0  0  0  0  0  0  0999 V2000
   -2.3222   -4.4828    0.0000 C   0  0  0  0  0  0  0  0  0  0  0  0
   -1.3757   -3.3192    0.0000 C   0  0  0  0  0  0  0  0  0  0  0  0
   -1.7607   -1.8694    0.0000 C   0  0  0  0  0  0  0  0  0  0  0  0
   -0.5008   -1.0553    0.0000 C   0  0  0  0  0  0  0  0  0  0  0  0
    0.6628   -2.0018    0.0000 C   0  0  0  0  0  0  0  0  0  0  0  0
    0.1221   -3.4010    0.0000 S   0  0  0  0  0  0  0  0  0  0  0  0
    2.1283   -1.6823    0.0000 N   0  0  0  0  0  0  0  0  0  0  0  0
    2.7923   -0.3372    0.0000 C   0  0  0  0  0  0  0  0  0  0  0  0
    4.2869   -0.4638    0.0000 C   0  0  0  0  0  0  0  0  0  0  0  0
    5.1439    0.7673    0.0000 C   0  0  0  0  0  0  0  0  0  0  0  0
    4.5062    2.1250    0.0000 C   0  0  0  0  0  0  0  0  0  0  0  0
    3.0116    2.2516    0.0000 C   0  0  0  0  0  0  0  0  0  0  0  0
    2.1546    1.0205    0.0000 C   0  0  0  0  0  0  0  0  0  0  0  0
    0.6955    1.3685    0.0000 N   0  0  0  0  0  0  0  0  0  0  0  0
   -0.4863    0.4447    0.0000 C   0  0  0  0  0  0  0  0  0  0  0  0
   -1.8313    1.1086    0.0000 N   0  0  0  0  0  0  0  0  0  0  0  0
   -1.9289    2.6054    0.0000 C   0  0  0  0  0  0  0  0  0  0  0  0
   -3.2740    3.2693    0.0000 C   0  0  0  0  0  0  0  0  0  0  0  0
   -4.5215    2.4364    0.0000 N   0  0  0  0  0  4  0  0  0  0  0  0
   -4.4239    0.9396    0.0000 C   0  0  0  0  0  0  0  0  0  0  0  0
   -3.0788    0.2757    0.0000 C   0  0  0  0  0  0  0  0  0  0  0  0
  1  2  1  0
  2  3  2  0
  3  4  1  0
  4  5  2  0
  5  6  1  0
  5  7  1  0
  7  8  1  0
  8  9  2  0
  9 10  1  0
 10 11  2  0
 11 12  1  0
 12 13  2  0
 13 14  1  0
 14 15  2  0
 15 16  1  0
 16 17  1  0
 17 18  1  0
 18 19  1  0
 19 20  1  0
 20 21  1  0
  6  2  1  0
 13  8  1  0
 21 16  1  0
 15  4  1  0
M  CHG  1  19   1
M  END
> <Identifier>
DESMETHYL_OLANZAPINE

> <hERG>
1

$$$$

     RDKit          2D

 33 36  0  0  0  0  0  0  0  0999 V2000
   -7.1509    0.1536    0.0000 C   0  0  0  0  0  0  0  0  0  0  0  0
   -5.6734    0.4124    0.0000 C   0  0  0  0  0  0  0  0  0  0  0  0
   -5.1588    1.8214    0.0000 N   0  0  0  0  0  0  0  0  0  0  0  0
   -3.6813    2.0801    0.0000 C   0  0  0  0  0  0  0  0  0  0  0  0
   -3.1667    3.4891    0.0000 N   0  0  0  0  0  0  0  0  0  0  0  0
   -1.6891    3.7479    0.0000 C   0  0  0  0  0  0  0  0  0  0  0  0
   -1.0301    5.0953    0.0000 N   0  0  0  0  0  0  0  0  0  0  0  0
    0.4551    4.8849    0.0000 C   0  0  0  0  0  0  0  0  0  0  0  0
    0.7139    3.4074    0.0000 C   0  0  0  0  0  0  0  0  0  0  0  0
    2.0613    2.7483    0.0000 C   0  0  0  0  0  0  0  0  0  0  0  0
    3.3059    3.5856    0.0000 O   0  0  0  0  0  0  0  0  0  0  0  0
    2.1643    1.2518    0.0000 N   0  0  0  0  0  0  0  0  0  0  0  0
    3.5117    0.5927    0.0000 C   0  0  0  0  0  0  0  0  0  0  0  0
    3.6146   -0.9038    0.0000 C   0  0  0  0  0  0  0  0  0  0  0  0
    2.3701   -1.7411    0.0000 C   0  0  0  0  0  0  0  0  0  0  0  0
    4.9621   -1.5628    0.0000 C   0  0  0  0  0  0  0  0  0  0  0  0
    6.2066   -0.7255    0.0000 C   0  0  0  0  0  0  0  0  0  0  0  0
    6.1037    0.7710    0.0000 C   0  0  0  0  0  0  0  0  0  0  0  0
    4.7562    1.4301    0.0000 C   0  0  0  0  0  0  0  0  0  0  0  0
    4.6533    2.9265    0.0000 Cl  0  0  0  0  0  0  0  0  0  0  0  0
   -0.6113    2.7047    0.0000 S   0  0  0  0  0  0  0  0  0  0  0  0
   -2.7184    0.9300    0.0000 C   0  0  0  0  0  0  0  0  0  0  0  0
   -3.2331   -0.4790    0.0000 C   0  0  0  0  0  0  0  0  0  0  0  0
   -2.2702   -1.6291    0.0000 N   0  0  0  0  0  0  0  0  0  0  0  0
   -2.7848   -3.0381    0.0000 C   0  0  0  0  0  0  0  0  0  0  0  0
   -1.8220   -4.1883    0.0000 C   0  0  0  0  0  0  0  0  0  0  0  0
   -0.3445   -3.9295    0.0000 N   0  0  0  0  0  0  0  0  0  0  0  0
    0.6184   -5.0796    0.0000 C   0  0  0  0  0  0  0  0  0  0  0  0
    0.1038   -6.4886    0.0000 C   0  0  0  0  0  0  0  0  0  0  0  0
    1.0667   -7.6388    0.0000 O   0  0  0  0  0  0  0  0  0  0  0  0
    0.1702   -2.5205    0.0000 C   0  0  0  0  0  0  0  0  0  0  0  0
   -0.7927   -1.3704    0.0000 C   0  0  0  0  0  0  0  0  0  0  0  0
   -4.7106   -0.7378    0.0000 N   0  0  0  0  0  0  0  0  0  0  0  0
  1  2  1  0
  2  3  2  0
  3  4  1  0
  4  5  1  0
  5  6  1  0
  6  7  2  0
  7  8  1  0
  8  9  2  0
  9 10  1  0
 10 11  2  0
 10 12  1  0
 12 13  1  0
 13 14  2  0
 14 15  1  0
 14 16  1  0
 16 17  2  0
 17 18  1  0
 18 19  2  0
 19 20  1  0
  9 21  1  0
  4 22  2  0
 22 23  1  0
 23 24  1  0
 24 25  1  0
 25 26  1  0
 26 27  1  0
 27 28  1  0
 28 29  1  0
 29 30  1  0
 27 31  1  0
 31 32  1  0
 23 33  2  0
 33  2  1  0
 21  6  1  0
 32 24  1  0
 19 13  1  0
M  END
> <Identifier>
DASATINIB

> <hERG>
1

$$$$

     RDKit          2D

 31 33  0  0  0  0  0  0  0  0999 V2000
   -7.5569   -4.1728    0.0000 C   0  0  0  0  0  0  0  0  0  0  0  0
   -6.7895   -2.8840    0.0000 O   0  0  0  0  0  0  0  0  0  0  0  0
   -7.5219   -1.5750    0.0000 C   0  0  0  0  0  0  0  0  0  0  0  0
   -9.0218   -1.5547    0.0000 C   0  0  0  0  0  0  0  0  0  0  0  0
   -9.7542   -0.2457    0.0000 C   0  0  0  0  0  0  0  0  0  0  0  0
   -8.9868    1.0431    0.0000 C   0  0  0  0  0  0  0  0  0  0  0  0
   -7.4869    1.0229    0.0000 C   0  0  0  0  0  0  0  0  0  0  0  0
   -6.7545   -0.2861    0.0000 C   0  0  0  0  0  0  0  0  0  0  0  0
   -5.2546   -0.3064    0.0000 O   0  0  0  0  0  0  0  0  0  0  0  0
   -4.4872    0.9825    0.0000 C   0  0  0  0  0  0  0  0  0  0  0  0
   -2.9873    0.9622    0.0000 C   0  0  0  0  0  0  0  0  0  0  0  0
   -2.2549   -0.3468    0.0000 O   0  0  0  0  0  0  0  0  0  0  0  0
   -2.2199    2.2511    0.0000 C   0  0  0  0  0  0  0  0  0  0  0  0
   -0.7200    2.2308    0.0000 N   0  0  0  0  0  4  0  0  0  0  0  0
    0.0124    0.9218    0.0000 C   0  0  0  0  0  0  0  0  0  0  0  0
    1.5123    0.9016    0.0000 C   0  0  0  0  0  0  0  0  0  0  0  0
    2.2797    2.1904    0.0000 N   0  0  0  0  0  4  0  0  0  0  0  0
    3.7796    2.1702    0.0000 C   0  0  0  0  0  0  0  0  0  0  0  0
    4.5120    0.8612    0.0000 C   0  0  0  0  0  0  0  0  0  0  0  0
    3.7446   -0.4276    0.0000 O   0  0  0  0  0  0  0  0  0  0  0  0
    6.0119    0.8410    0.0000 N   0  0  0  0  0  0  0  0  0  0  0  0
    6.7443   -0.4681    0.0000 C   0  0  0  0  0  0  0  0  0  0  0  0
    5.9769   -1.7569    0.0000 C   0  0  0  0  0  0  0  0  0  0  0  0
    4.4770   -1.7367    0.0000 C   0  0  0  0  0  0  0  0  0  0  0  0
    6.7093   -3.0659    0.0000 C   0  0  0  0  0  0  0  0  0  0  0  0
    8.2092   -3.0861    0.0000 C   0  0  0  0  0  0  0  0  0  0  0  0
    8.9766   -1.7973    0.0000 C   0  0  0  0  0  0  0  0  0  0  0  0
    8.2442   -0.4883    0.0000 C   0  0  0  0  0  0  0  0  0  0  0  0
    9.0116    0.8005    0.0000 C   0  0  0  0  0  0  0  0  0  0  0  0
    1.5473    3.4994    0.0000 C   0  0  0  0  0  0  0  0  0  0  0  0
    0.0474    3.5197    0.0000 C   0  0  0  0  0  0  0  0  0  0  0  0
  1  2  1  0
  2  3  1  0
  3  4  2  0
  4  5  1  0
  5  6  2  0
  6  7  1  0
  7  8  2  0
  8  9  1  0
  9 10  1  0
 10 11  1  0
 11 12  1  1
 11 13  1  0
 13 14  1  0
 14 15  1  0
 15 16  1  0
 16 17  1  0
 17 18  1  0
 18 19  1  0
 19 20  2  0
 19 21  1  0
 21 22  1  0
 22 23  2  0
 23 24  1  0
 23 25  1  0
 25 26  2  0
 26 27  1  0
 27 28  2  0
 28 29  1  0
 17 30  1  0
 30 31  1  0
  8  3  1  0
 31 14  1  0
 28 22  1  0
M  CHG  2  14   1  17   1
M  END
> <Identifier>
RANOLAZINE

> <hERG>
1

$$$$

     RDKit          2D

 31 34  0  0  0  0  0  0  0  0999 V2000
   -8.4499    4.0173    0.0000 C   0  0  0  0  0  0  0  0  0  0  0  0
   -8.8533    2.5725    0.0000 O   0  0  0  0  0  0  0  0  0  0  0  0
   -7.8038    1.5008    0.0000 C   0  0  0  0  0  0  0  0  0  0  0  0
   -6.3510    1.8738    0.0000 C   0  0  0  0  0  0  0  0  0  0  0  0
   -5.3015    0.8021    0.0000 C   0  0  0  0  0  0  0  0  0  0  0  0
   -5.7049   -0.6427    0.0000 C   0  0  0  0  0  0  0  0  0  0  0  0
   -4.6554   -1.7144    0.0000 C   0  0  0  0  0  0  0  0  0  0  0  0
   -3.2025   -1.3414    0.0000 N   0  0  0  0  0  0  0  0  0  0  0  0
   -2.1530   -2.4131    0.0000 C   0  0  0  0  0  0  0  0  0  0  0  0
   -0.7002   -2.0401    0.0000 C   0  0  0  0  0  0  0  0  0  0  0  0
   -0.2968   -0.5954    0.0000 C   0  0  0  0  0  0  0  0  0  0  0  0
    1.1561   -0.2223    0.0000 N   0  0  0  0  0  0  0  0  0  0  0  0
    2.2056   -1.2941    0.0000 C   0  0  0  0  0  0  0  0  0  0  0  0
    1.8022   -2.7388    0.0000 O   0  0  0  0  0  0  0  0  0  0  0  0
    3.6585   -0.9211    0.0000 C   0  0  0  0  0  0  0  0  0  0  0  0
    4.7080   -1.9928    0.0000 C   0  0  0  0  0  0  0  0  0  0  0  0
    6.1608   -1.6198    0.0000 C   0  0  0  0  0  0  0  0  0  0  0  0
    7.2103   -2.6915    0.0000 O   0  0  0  0  0  0  0  0  0  0  0  0
    6.5642   -0.1750    0.0000 C   0  0  0  0  0  0  0  0  0  0  0  0
    8.0171    0.1980    0.0000 C   0  0  0  0  0  0  0  0  0  0  0  0
    8.4205    1.6427    0.0000 C   0  0  0  0  0  0  0  0  0  0  0  0
    7.3711    2.7144    0.0000 C   0  0  0  0  0  0  0  0  0  0  0  0
    7.7745    4.1592    0.0000 F   0  0  0  0  0  0  0  0  0  0  0  0
    5.9182    2.3414    0.0000 C   0  0  0  0  0  0  0  0  0  0  0  0
    5.5148    0.8967    0.0000 C   0  0  0  0  0  0  0  0  0  0  0  0
    4.0619    0.5237    0.0000 O   0  0  0  0  0  0  0  0  0  0  0  0
   -1.3462    0.4764    0.0000 C   0  0  0  0  0  0  0  0  0  0  0  0
   -2.7991    0.1034    0.0000 C   0  0  0  0  0  0  0  0  0  0  0  0
   -7.1578   -1.0157    0.0000 C   0  0  0  0  0  0  0  0  0  0  0  0
   -7.5612   -2.4604    0.0000 F   0  0  0  0  0  0  0  0  0  0  0  0
   -8.2072    0.0561    0.0000 C   0  0  0  0  0  0  0  0  0  0  0  0
  1  2  1  0
  2  3  1  0
  3  4  2  0
  4  5  1  0
  5  6  2  0
  6  7  1  0
  7  8  1  0
  8  9  1  0
  9 10  1  0
 10 11  1  0
 11 12  1  0
 12 13  1  0
 13 14  2  0
 13 15  1  0
 15 16  2  0
 16 17  1  0
 17 18  2  0
 17 19  1  0
 19 20  2  0
 20 21  1  0
 21 22  2  0
 22 23  1  0
 22 24  1  0
 24 25  2  0
 25 26  1  0
 11 27  1  0
 27 28  1  0
  6 29  1  0
 29 30  1  0
 29 31  2  0
 31  3  1  0
 28  8  1  0
 26 15  1  0
 25 19  1  0
M  END
> <Identifier>
JMC20066569-51

> <hERG>
1

$$$$

     RDKit          2D

 20 23  0  0  0  0  0  0  0  0999 V2000
   -2.9620   -4.0282    0.0000 C   0  0  0  0  0  0  0  0  0  0  0  0
   -1.8169   -3.0594    0.0000 N   0  0  0  0  0  0  0  0  0  0  0  0
   -0.4053   -3.5667    0.0000 C   0  0  0  0  0  0  0  0  0  0  0  0
    0.7399   -2.5979    0.0000 C   0  0  0  0  0  0  0  0  0  0  0  0
    0.4735   -1.1218    0.0000 N   0  0  0  0  0  0  0  0  0  0  0  0
    1.7503   -0.3345    0.0000 C   0  0  0  0  0  0  0  0  0  0  0  0
    2.9496   -1.2354    0.0000 C   0  0  0  0  0  0  0  0  0  0  0  0
    4.3294   -0.6472    0.0000 C   0  0  0  0  0  0  0  0  0  0  0  0
    4.5100    0.8419    0.0000 C   0  0  0  0  0  0  0  0  0  0  0  0
    3.3106    1.7428    0.0000 C   0  0  0  0  0  0  0  0  0  0  0  0
    1.9308    1.1546    0.0000 C   0  0  0  0  0  0  0  0  0  0  0  0
    0.8791    2.2242    0.0000 C   0  0  0  0  0  0  0  0  0  0  0  0
   -0.6128    2.0688    0.0000 C   0  0  0  0  0  0  0  0  0  0  0  0
   -1.3025    3.4009    0.0000 C   0  0  0  0  0  0  0  0  0  0  0  0
   -2.8009    3.4696    0.0000 C   0  0  0  0  0  0  0  0  0  0  0  0
   -3.6097    2.2063    0.0000 C   0  0  0  0  0  0  0  0  0  0  0  0
   -2.9200    0.8742    0.0000 C   0  0  0  0  0  0  0  0  0  0  0  0
   -1.4216    0.8055    0.0000 C   0  0  0  0  0  0  0  0  0  0  0  0
   -0.9381   -0.6144    0.0000 C   0  0  0  0  0  0  0  0  0  0  0  0
   -2.0833   -1.5832    0.0000 C   0  0  0  0  0  0  0  0  0  0  0  0
  1  2  1  0
  2  3  1  0
  3  4  1  0
  4  5  1  0
  5  6  1  0
  6  7  2  0
  7  8  1  0
  8  9  2  0
  9 10  1  0
 10 11  2  0
 11 12  1  0
 12 13  1  0
 13 14  2  0
 14 15  1  0
 15 16  2  0
 16 17  1  0
 17 18  2  0
 18 19  1  0
 19 20  1  1
 20  2  1  0
 19  5  1  0
 11  6  1  0
 18 13  1  0
M  END
> <Identifier>
MIANSERINE

> <hERG>
1

$$$$

     RDKit          2D

 27 29  0  0  0  0  0  0  0  0999 V2000
   -1.2930   -4.8752    0.0000 C   0  0  0  0  0  0  0  0  0  0  0  0
   -0.5718   -3.5599    0.0000 N   0  0  0  0  0  0  0  0  0  0  0  0
    0.9278   -3.5268    0.0000 C   0  0  0  0  0  0  0  0  0  0  0  0
    1.7063   -4.8090    0.0000 C   0  0  0  0  0  0  0  0  0  0  0  0
    3.2059   -4.7759    0.0000 O   0  0  0  0  0  0  0  0  0  0  0  0
   -1.3503   -2.2777    0.0000 C   0  0  0  0  0  0  0  0  0  0  0  0
   -2.8499   -2.3108    0.0000 O   0  0  0  0  0  0  0  0  0  0  0  0
   -0.6291   -0.9624    0.0000 N   0  0  0  0  0  0  0  0  0  0  0  0
    0.8588   -0.7728    0.0000 C   0  0  0  0  0  0  0  0  0  0  0  0
    1.1383    0.7010    0.0000 C   0  0  0  0  0  0  0  0  0  0  0  0
    2.4948    1.3412    0.0000 C   0  0  0  0  0  0  0  0  0  0  0  0
    3.7275    0.4865    0.0000 C   0  0  0  0  0  0  0  0  0  0  0  0
    5.0840    1.1266    0.0000 C   0  0  0  0  0  0  0  0  0  0  0  0
    6.3167    0.2720    0.0000 F   0  0  0  0  0  0  0  0  0  0  0  0
    5.2078    2.6215    0.0000 C   0  0  0  0  0  0  0  0  0  0  0  0
    3.9752    3.4762    0.0000 C   0  0  0  0  0  0  0  0  0  0  0  0
    2.6186    2.8360    0.0000 C   0  0  0  0  0  0  0  0  0  0  0  0
    1.3860    3.6907    0.0000 F   0  0  0  0  0  0  0  0  0  0  0  0
   -0.1770    1.4221    0.0000 C   0  0  0  0  0  0  0  0  0  0  0  0
   -1.2693    0.3941    0.0000 C   0  0  0  0  0  0  0  0  0  0  0  0
   -2.7431    0.6735    0.0000 C   0  0  0  0  0  0  0  0  0  0  0  0
   -3.7219   -0.4631    0.0000 C   0  0  0  0  0  0  0  0  0  0  0  0
   -5.1957   -0.1837    0.0000 C   0  0  0  0  0  0  0  0  0  0  0  0
   -5.6905    1.2324    0.0000 C   0  0  0  0  0  0  0  0  0  0  0  0
   -4.7117    2.3689    0.0000 C   0  0  0  0  0  0  0  0  0  0  0  0
   -5.2066    3.7850    0.0000 O   0  0  0  0  0  0  0  0  0  0  0  0
   -3.2379    2.0895    0.0000 C   0  0  0  0  0  0  0  0  0  0  0  0
  1  2  1  0
  2  3  1  0
  3  4  1  0
  4  5  1  0
  2  6  1  0
  6  7  2  0
  6  8  1  0
  8  9  1  0
  9 10  1  0
 10 11  1  0
 11 12  2  0
 12 13  1  0
 13 14  1  0
 13 15  2  0
 15 16  1  0
 16 17  2  0
 17 18  1  0
 10 19  2  0
 19 20  1  0
 20 21  1  6
 21 22  2  0
 22 23  1  0
 23 24  2  0
 24 25  1  0
 25 26  1  0
 25 27  2  0
 20  8  1  0
 27 21  1  0
 17 11  1  0
M  END
> <Identifier>
BMCL-16-2006-17782-20

> <hERG>
1

$$$$

     RDKit          2D

 31 35  0  0  0  0  0  0  0  0999 V2000
    1.9280   -2.7308    0.0000 O   0  0  0  0  0  0  0  0  0  0  0  0
    2.3352   -1.2871    0.0000 C   0  0  0  0  0  0  0  0  0  0  0  0
    1.2886   -0.2126    0.0000 N   0  0  0  0  0  0  0  0  0  0  0  0
   -0.1653   -0.5818    0.0000 C   0  0  0  0  0  0  0  0  0  0  0  0
   -1.2119    0.4927    0.0000 C   0  0  0  0  0  0  0  0  0  0  0  0
   -2.6658    0.1235    0.0000 C   0  0  0  0  0  0  0  0  0  0  0  0
   -3.0730   -1.3202    0.0000 N   0  0  0  0  0  0  0  0  0  0  0  0
   -4.5269   -1.6894    0.0000 C   0  0  0  0  0  0  0  0  0  0  0  0
   -5.5735   -0.6149    0.0000 C   0  0  0  0  0  0  0  0  0  0  0  0
   -5.1663    0.8288    0.0000 C   0  0  0  0  0  0  0  0  0  0  0  0
   -6.2129    1.9033    0.0000 C   0  0  0  0  0  0  0  0  0  0  0  0
   -7.6668    1.5341    0.0000 C   0  0  0  0  0  0  0  0  0  0  0  0
   -8.0740    0.0905    0.0000 C   0  0  0  0  0  0  0  0  0  0  0  0
   -7.0274   -0.9840    0.0000 C   0  0  0  0  0  0  0  0  0  0  0  0
   -9.5729    0.0316    0.0000 O   0  0  0  0  0  0  0  0  0  0  0  0
  -10.0920    1.4389    0.0000 C   0  0  0  0  0  0  0  0  0  0  0  0
   -8.9140    2.3675    0.0000 O   0  0  0  0  0  0  0  0  0  0  0  0
   -2.0264   -2.3947    0.0000 C   0  0  0  0  0  0  0  0  0  0  0  0
   -0.5725   -2.0255    0.0000 C   0  0  0  0  0  0  0  0  0  0  0  0
    3.7891   -0.9180    0.0000 C   0  0  0  0  0  0  0  0  0  0  0  0
    4.8357   -1.9924    0.0000 C   0  0  0  0  0  0  0  0  0  0  0  0
    6.2896   -1.6233    0.0000 C   0  0  0  0  0  0  0  0  0  0  0  0
    7.3362   -2.6978    0.0000 O   0  0  0  0  0  0  0  0  0  0  0  0
    6.6968   -0.1796    0.0000 C   0  0  0  0  0  0  0  0  0  0  0  0
    8.1507    0.1896    0.0000 C   0  0  0  0  0  0  0  0  0  0  0  0
    8.5579    1.6332    0.0000 C   0  0  0  0  0  0  0  0  0  0  0  0
    7.5112    2.7077    0.0000 C   0  0  0  0  0  0  0  0  0  0  0  0
    7.9184    4.1514    0.0000 F   0  0  0  0  0  0  0  0  0  0  0  0
    6.0574    2.3386    0.0000 C   0  0  0  0  0  0  0  0  0  0  0  0
    5.6502    0.8949    0.0000 C   0  0  0  0  0  0  0  0  0  0  0  0
    4.1963    0.5257    0.0000 O   0  0  0  0  0  0  0  0  0  0  0  0
  1  2  2  0
  2  3  1  0
  3  4  1  0
  4  5  1  0
  5  6  1  0
  6  7  1  0
  7  8  1  0
  8  9  1  0
  9 10  2  0
 10 11  1  0
 11 12  2  0
 12 13  1  0
 13 14  2  0
 13 15  1  0
 15 16  1  0
 16 17  1  0
  7 18  1  0
 18 19  1  0
  2 20  1  0
 20 21  2  0
 21 22  1  0
 22 23  2  0
 22 24  1  0
 24 25  2  0
 25 26  1  0
 26 27  2  0
 27 28  1  0
 27 29  1  0
 29 30  2  0
 30 31  1  0
 19  4  1  0
 31 20  1  0
 14  9  1  0
 30 24  1  0
 17 12  1  0
M  END
> <Identifier>
JMC20066569-22

> <hERG>
1

$$$$

     RDKit          2D

 49 53  0  0  0  0  0  0  0  0999 V2000
    0.6260   -2.4777    0.0000 C   0  0  0  0  0  0  0  0  0  0  0  0
    1.9332   -3.2134    0.0000 C   0  0  0  0  0  0  0  0  0  0  0  0
    3.2403   -3.9492    0.0000 C   0  0  0  0  0  0  0  0  0  0  0  0
    1.1974   -4.5206    0.0000 C   0  0  0  0  0  0  0  0  0  0  0  0
    2.6689   -1.9063    0.0000 N   0  0  0  0  0  0  0  0  0  0  0  0
    4.1688   -1.8899    0.0000 C   0  0  0  0  0  0  0  0  0  0  0  0
    4.9330   -3.1807    0.0000 O   0  0  0  0  0  0  0  0  0  0  0  0
    4.9046   -0.5827    0.0000 C   0  0  0  0  0  0  0  0  0  0  0  0
    6.4045   -0.5664    0.0000 C   0  0  0  0  0  0  0  0  0  0  0  0
    7.1403    0.7408    0.0000 C   0  0  0  0  0  0  0  0  0  0  0  0
    8.6402    0.7572    0.0000 C   0  0  0  0  0  0  0  0  0  0  0  0
    9.3760    2.0643    0.0000 C   0  0  0  0  0  0  0  0  0  0  0  0
    8.6118    3.3551    0.0000 C   0  0  0  0  0  0  0  0  0  0  0  0
    7.1119    3.3387    0.0000 C   0  0  0  0  0  0  0  0  0  0  0  0
    6.3762    2.0316    0.0000 C   0  0  0  0  0  0  0  0  0  0  0  0
    4.8762    2.0152    0.0000 C   0  0  0  0  0  0  0  0  0  0  0  0
    4.1405    0.7080    0.0000 N   0  0  0  0  0  4  0  0  0  0  0  0
    2.6406    0.6916    0.0000 C   0  0  0  0  0  0  0  0  0  0  0  0
    1.8764    1.9824    0.0000 C   0  0  0  0  0  0  0  0  0  0  0  0
    2.6122    3.2896    0.0000 O   0  0  0  0  0  0  0  0  0  0  0  0
    0.3765    1.9660    0.0000 C   0  0  0  0  0  0  0  0  0  0  0  0
   -0.3876    3.2568    0.0000 C   0  0  0  0  0  0  0  0  0  0  0  0
   -1.8875    3.2404    0.0000 C   0  0  0  0  0  0  0  0  0  0  0  0
   -2.6517    4.5312    0.0000 C   0  0  0  0  0  0  0  0  0  0  0  0
   -4.1516    4.5148    0.0000 C   0  0  0  0  0  0  0  0  0  0  0  0
   -4.8874    3.2077    0.0000 C   0  0  0  0  0  0  0  0  0  0  0  0
   -4.1232    1.9169    0.0000 C   0  0  0  0  0  0  0  0  0  0  0  0
   -2.6233    1.9333    0.0000 C   0  0  0  0  0  0  0  0  0  0  0  0
   -0.3593    0.6589    0.0000 N   0  0  0  0  0  0  0  0  0  0  0  0
    0.4049   -0.6319    0.0000 C   0  0  0  0  0  0  0  0  0  0  0  0
    1.9048   -0.6155    0.0000 O   0  0  0  0  0  0  0  0  0  0  0  0
   -0.3309   -1.9390    0.0000 C   0  0  0  0  0  0  0  0  0  0  0  0
    0.4333   -3.2298    0.0000 C   0  0  0  0  0  0  0  0  0  0  0  0
   -0.3025   -4.5370    0.0000 C   0  0  0  0  0  0  0  0  0  0  0  0
    0.4616   -5.8277    0.0000 N   0  0  0  0  0  0  0  0  0  0  0  0
   -1.8024   -4.5533    0.0000 O   0  0  0  0  0  0  0  0  0  0  0  0
   -1.8308   -1.9554    0.0000 N   0  0  0  0  0  0  0  0  0  0  0  0
   -2.5949   -0.6646    0.0000 C   0  0  0  0  0  0  0  0  0  0  0  0
   -1.8592    0.6425    0.0000 O   0  0  0  0  0  0  0  0  0  0  0  0
   -4.0948   -0.6810    0.0000 C   0  0  0  0  0  0  0  0  0  0  0  0
   -4.8306   -1.9882    0.0000 C   0  0  0  0  0  0  0  0  0  0  0  0
   -6.3305   -2.0045    0.0000 C   0  0  0  0  0  0  0  0  0  0  0  0
   -7.0947   -0.7138    0.0000 C   0  0  0  0  0  0  0  0  0  0  0  0
   -8.5946   -0.7302    0.0000 C   0  0  0  0  0  0  0  0  0  0  0  0
   -9.3587    0.5606    0.0000 C   0  0  0  0  0  0  0  0  0  0  0  0
   -8.6229    1.8678    0.0000 C   0  0  0  0  0  0  0  0  0  0  0  0
   -7.1230    1.8841    0.0000 C   0  0  0  0  0  0  0  0  0  0  0  0
   -6.3589    0.5934    0.0000 C   0  0  0  0  0  0  0  0  0  0  0  0
   -4.8590    0.6098    0.0000 N   0  0  0  0  0  0  0  0  0  0  0  0
  1  2  1  0
  2  3  1  0
  2  4  1  0
  2  5  1  0
  5  6  1  0
  6  7  2  0
  8  6  1  1
  8  9  1  0
 10  9  1  1
 10 11  1  0
 11 12  1  0
 12 13  1  0
 13 14  1  0
 15 14  1  1
 15 16  1  0
 16 17  1  0
 17 18  1  0
 18 19  1  0
 19 20  1  6
 19 21  1  0
 21 22  1  1
 22 23  1  0
 23 24  2  0
 24 25  1  0
 25 26  2  0
 26 27  1  0
 27 28  2  0
 21 29  1  0
 29 30  1  0
 30 31  2  0
 30 32  1  0
 32 33  1  6
 33 34  1  0
 34 35  1  0
 34 36  2  0
 32 37  1  0
 37 38  1  0
 38 39  2  0
 38 40  1  0
 40 41  2  0
 41 42  1  0
 42 43  2  0
 43 44  1  0
 44 45  2  0
 45 46  1  0
 46 47  2  0
 47 48  1  0
 48 49  2  0
 17  8  1  0
 28 23  1  0
 49 40  1  0
 15 10  1  0
 48 43  1  0
M  CHG  1  17   1
M  END
> <Identifier>
SAQUINAVIR

> <hERG>
1

$$$$

     RDKit          2D

 23 25  0  0  0  0  0  0  0  0999 V2000
    5.0562    0.5317    0.0000 C   0  0  0  0  0  0  0  0  0  0  0  0
    3.5596    0.4311    0.0000 C   0  0  0  0  0  0  0  0  0  0  0  0
    2.7241    1.6768    0.0000 C   0  0  0  0  0  0  0  0  0  0  0  0
    3.9699    2.5123    0.0000 O   0  0  0  0  0  0  0  0  0  0  0  0
    1.8886    2.9226    0.0000 C   0  0  0  0  0  0  0  0  0  0  0  0
    2.5498    4.2691    0.0000 C   0  0  0  0  0  0  0  0  0  0  0  0
    1.4783    0.8414    0.0000 C   0  0  0  0  0  0  0  0  0  0  0  0
    0.0701    1.3582    0.0000 C   0  0  0  0  0  0  0  0  0  0  0  0
   -0.8565    0.1786    0.0000 N   0  0  0  0  0  0  0  0  0  0  0  0
   -2.3555    0.2350    0.0000 C   0  0  0  0  0  0  0  0  0  0  0  0
   -3.0561    1.5613    0.0000 C   0  0  0  0  0  0  0  0  0  0  0  0
   -4.5551    1.6176    0.0000 C   0  0  0  0  0  0  0  0  0  0  0  0
   -5.3533    0.3477    0.0000 C   0  0  0  0  0  0  0  0  0  0  0  0
   -6.8523    0.4040    0.0000 F   0  0  0  0  0  0  0  0  0  0  0  0
   -4.6527   -0.9786    0.0000 C   0  0  0  0  0  0  0  0  0  0  0  0
   -3.1537   -1.0350    0.0000 C   0  0  0  0  0  0  0  0  0  0  0  0
   -0.0210   -1.0672    0.0000 C   0  0  0  0  0  0  0  0  0  0  0  0
   -0.3878   -2.5216    0.0000 C   0  0  0  0  0  0  0  0  0  0  0  0
    0.6884   -3.5665    0.0000 C   0  0  0  0  0  0  0  0  0  0  0  0
    2.1314   -3.1569    0.0000 C   0  0  0  0  0  0  0  0  0  0  0  0
    3.2076   -4.2018    0.0000 Cl  0  0  0  0  0  0  0  0  0  0  0  0
    2.4982   -1.7024    0.0000 C   0  0  0  0  0  0  0  0  0  0  0  0
    1.4219   -0.6576    0.0000 C   0  0  0  0  0  0  0  0  0  0  0  0
  1  2  1  0
  2  3  1  0
  3  4  1  0
  3  5  1  0
  5  6  1  0
  3  7  1  0
  7  8  2  0
  8  9  1  0
  9 10  1  0
 10 11  2  0
 11 12  1  0
 12 13  2  0
 13 14  1  0
 13 15  1  0
 15 16  2  0
  9 17  1  0
 17 18  2  0
 18 19  1  0
 19 20  2  0
 20 21  1  0
 20 22  1  0
 22 23  2  0
 23  7  1  0
 16 10  1  0
 23 17  1  0
M  END
> <Identifier>
BMCL20031829_20

> <hERG>
1

$$$$

     RDKit          2D

 19 20  0  0  0  0  0  0  0  0999 V2000
    0.1033   -3.7070    0.0000 C   0  0  0  0  0  0  0  0  0  0  0  0
   -0.8173   -2.5227    0.0000 C   0  0  0  0  0  0  0  0  0  0  0  0
   -2.3032   -2.7278    0.0000 C   0  0  0  0  0  0  0  0  0  0  0  0
   -0.2520   -1.1334    0.0000 C   0  0  0  0  0  0  0  0  0  0  0  0
   -1.1725    0.0509    0.0000 C   0  0  0  0  0  0  0  0  0  0  0  0
   -2.6584   -0.1541    0.0000 N   0  0  0  0  0  4  0  0  0  0  0  0
   -3.2238   -1.5435    0.0000 C   0  0  0  0  0  0  0  0  0  0  0  0
   -3.5790    1.0301    0.0000 C   0  0  0  0  0  0  0  0  0  0  0  0
   -0.6072    1.4403    0.0000 C   0  0  0  0  0  0  0  0  0  0  0  0
    0.7822    0.8750    0.0000 C   0  0  0  0  0  0  0  0  0  0  0  0
    1.9665    1.7956    0.0000 C   0  0  0  0  0  0  0  0  0  0  0  0
    3.3559    1.2302    0.0000 C   0  0  0  0  0  0  0  0  0  0  0  0
    3.5610   -0.2557    0.0000 C   0  0  0  0  0  0  0  0  0  0  0  0
    4.9503   -0.8210    0.0000 Cl  0  0  0  0  0  0  0  0  0  0  0  0
    2.3767   -1.1763    0.0000 C   0  0  0  0  0  0  0  0  0  0  0  0
    0.9873   -0.6109    0.0000 C   0  0  0  0  0  0  0  0  0  0  0  0
   -0.0418    2.8297    0.0000 C   0  0  0  0  0  0  0  0  0  0  0  0
   -1.4312    3.3951    0.0000 C   0  0  0  0  0  0  0  0  0  0  0  0
   -1.9966    2.0057    0.0000 C   0  0  0  0  0  0  0  0  0  0  0  0
  1  2  1  0
  2  3  1  0
  2  4  1  0
  5  4  1  1
  5  6  1  0
  6  7  1  0
  6  8  1  0
  5  9  1  0
  9 10  1  0
 10 11  2  0
 11 12  1  0
 12 13  2  0
 13 14  1  0
 13 15  1  0
 15 16  2  0
  9 17  1  0
 17 18  1  0
 18 19  1  0
 19  9  1  0
 16 10  1  0
M  CHG  1   6   1
M  END
> <Identifier>
SIBUTRAMINE

> <hERG>
1

$$$$

     RDKit          2D

 33 37  0  0  0  0  0  0  0  0999 V2000
    9.1692   -3.0921    0.0000 C   0  0  0  0  0  0  0  0  0  0  0  0
    9.3906   -1.6086    0.0000 O   0  0  0  0  0  0  0  0  0  0  0  0
    8.2166   -0.6750    0.0000 C   0  0  0  0  0  0  0  0  0  0  0  0
    6.8210   -1.2250    0.0000 C   0  0  0  0  0  0  0  0  0  0  0  0
    5.6470   -0.2914    0.0000 C   0  0  0  0  0  0  0  0  0  0  0  0
    4.2514   -0.8414    0.0000 O   0  0  0  0  0  0  0  0  0  0  0  0
    3.0774    0.0921    0.0000 C   0  0  0  0  0  0  0  0  0  0  0  0
    1.6818   -0.4579    0.0000 C   0  0  0  0  0  0  0  0  0  0  0  0
    1.4604   -1.9414    0.0000 O   0  0  0  0  0  0  0  0  0  0  0  0
    0.5078    0.4757    0.0000 N   0  0  0  0  0  0  0  0  0  0  0  0
   -0.8878   -0.0743    0.0000 C   0  0  0  0  0  0  0  0  0  0  0  0
   -2.0618    0.8593    0.0000 C   0  0  0  0  0  0  0  0  0  0  0  0
   -3.4574    0.3093    0.0000 C   0  0  0  0  0  0  0  0  0  0  0  0
   -3.6788   -1.1743    0.0000 N   0  0  0  0  0  0  0  0  0  0  0  0
   -5.0744   -1.7243    0.0000 C   0  0  0  0  0  0  0  0  0  0  0  0
   -6.2484   -0.7907    0.0000 C   0  0  0  0  0  0  0  0  0  0  0  0
   -6.0270    0.6929    0.0000 C   0  0  0  0  0  0  0  0  0  0  0  0
   -7.2011    1.6264    0.0000 C   0  0  0  0  0  0  0  0  0  0  0  0
   -8.5966    1.0764    0.0000 C   0  0  0  0  0  0  0  0  0  0  0  0
   -8.8180   -0.4071    0.0000 C   0  0  0  0  0  0  0  0  0  0  0  0
   -7.6440   -1.3407    0.0000 C   0  0  0  0  0  0  0  0  0  0  0  0
  -10.2974   -0.6550    0.0000 O   0  0  0  0  0  0  0  0  0  0  0  0
  -10.9903    0.6754    0.0000 C   0  0  0  0  0  0  0  0  0  0  0  0
   -9.9391    1.7455    0.0000 O   0  0  0  0  0  0  0  0  0  0  0  0
   -2.5048   -2.1078    0.0000 C   0  0  0  0  0  0  0  0  0  0  0  0
   -1.1092   -1.5579    0.0000 C   0  0  0  0  0  0  0  0  0  0  0  0
    3.2988    1.5757    0.0000 C   0  0  0  0  0  0  0  0  0  0  0  0
    4.6943    2.1257    0.0000 C   0  0  0  0  0  0  0  0  0  0  0  0
    4.9158    3.6092    0.0000 O   0  0  0  0  0  0  0  0  0  0  0  0
    5.8684    1.1921    0.0000 C   0  0  0  0  0  0  0  0  0  0  0  0
    7.2640    1.7421    0.0000 C   0  0  0  0  0  0  0  0  0  0  0  0
    8.4380    0.8085    0.0000 C   0  0  0  0  0  0  0  0  0  0  0  0
    9.8336    1.3585    0.0000 F   0  0  0  0  0  0  0  0  0  0  0  0
  1  2  1  0
  2  3  1  0
  3  4  2  0
  4  5  1  0
  5  6  1  0
  6  7  1  0
  7  8  1  0
  8  9  2  0
  8 10  1  0
 10 11  1  0
 11 12  1  0
 12 13  1  0
 13 14  1  0
 14 15  1  0
 15 16  1  0
 16 17  2  0
 17 18  1  0
 18 19  2  0
 19 20  1  0
 20 21  2  0
 20 22  1  0
 22 23  1  0
 23 24  1  0
 14 25  1  0
 25 26  1  0
  7 27  2  0
 27 28  1  0
 28 29  2  0
 28 30  1  0
 30 31  1  0
 31 32  2  0
 32 33  1  0
 32  3  1  0
 30  5  2  0
 26 11  1  0
 21 16  1  0
 24 19  1  0
M  END
> <Identifier>
JMC20066569-35

> <hERG>
1

$$$$

     RDKit          2D

 24 26  0  0  0  0  0  0  0  0999 V2000
   -6.5524    3.6847    0.0000 C   0  0  0  0  0  0  0  0  0  0  0  0
   -6.6777    2.1899    0.0000 O   0  0  0  0  0  0  0  0  0  0  0  0
   -5.4458    1.3341    0.0000 C   0  0  0  0  0  0  0  0  0  0  0  0
   -4.0887    1.9730    0.0000 C   0  0  0  0  0  0  0  0  0  0  0  0
   -2.8568    1.1171    0.0000 C   0  0  0  0  0  0  0  0  0  0  0  0
   -2.9820   -0.3776    0.0000 C   0  0  0  0  0  0  0  0  0  0  0  0
   -1.7502   -1.2335    0.0000 C   0  0  0  0  0  0  0  0  0  0  0  0
   -0.3930   -0.5946    0.0000 N   0  0  0  0  0  0  0  0  0  0  0  0
    0.8388   -1.4504    0.0000 C   0  0  0  0  0  0  0  0  0  0  0  0
    0.7136   -2.9452    0.0000 O   0  0  0  0  0  0  0  0  0  0  0  0
    2.1960   -0.8115    0.0000 C   0  0  0  0  0  0  0  0  0  0  0  0
    3.5106   -1.5339    0.0000 C   0  0  0  0  0  0  0  0  0  0  0  0
    4.6038   -0.5069    0.0000 C   0  0  0  0  0  0  0  0  0  0  0  0
    6.0986   -0.6321    0.0000 C   0  0  0  0  0  0  0  0  0  0  0  0
    6.9544    0.5998    0.0000 C   0  0  0  0  0  0  0  0  0  0  0  0
    8.4492    0.4745    0.0000 Cl  0  0  0  0  0  0  0  0  0  0  0  0
    6.3155    1.9569    0.0000 C   0  0  0  0  0  0  0  0  0  0  0  0
    4.8207    2.0822    0.0000 C   0  0  0  0  0  0  0  0  0  0  0  0
    3.9649    0.8503    0.0000 C   0  0  0  0  0  0  0  0  0  0  0  0
    2.4768    0.6620    0.0000 O   0  0  0  0  0  0  0  0  0  0  0  0
   -4.3392   -1.0166    0.0000 C   0  0  0  0  0  0  0  0  0  0  0  0
   -4.4644   -2.5113    0.0000 O   0  0  0  0  0  0  0  0  0  0  0  0
   -5.8215   -3.1502    0.0000 C   0  0  0  0  0  0  0  0  0  0  0  0
   -5.5711   -0.1607    0.0000 C   0  0  0  0  0  0  0  0  0  0  0  0
  1  2  1  0
  2  3  1  0
  3  4  2  0
  4  5  1  0
  5  6  2  0
  6  7  1  0
  7  8  1  0
  8  9  1  0
  9 10  2  0
  9 11  1  0
 11 12  2  0
 12 13  1  0
 13 14  2  0
 14 15  1  0
 15 16  1  0
 15 17  2  0
 17 18  1  0
 18 19  2  0
 19 20  1  0
  6 21  1  0
 21 22  1  0
 22 23  1  0
 21 24  2  0
 24  3  1  0
 20 11  1  0
 19 13  1  0
M  END
> <Identifier>
5-CHLORO-N-(2,4-DIMETHOXYBENZYL)-1-BENZOFURAN-2-CARBOXAMIDE

> <hERG>
1

$$$$

     RDKit          2D

 28 31  0  0  0  0  0  0  0  0999 V2000
    6.2039   -3.3806    0.0000 C   0  0  0  0  0  0  0  0  0  0  0  0
    6.5621   -1.9240    0.0000 O   0  0  0  0  0  0  0  0  0  0  0  0
    5.4797   -0.8855    0.0000 C   0  0  0  0  0  0  0  0  0  0  0  0
    4.0392   -1.3036    0.0000 C   0  0  0  0  0  0  0  0  0  0  0  0
    2.9568   -0.2651    0.0000 C   0  0  0  0  0  0  0  0  0  0  0  0
    1.5163   -0.6832    0.0000 N   0  0  0  0  0  0  0  0  0  0  0  0
    0.4339    0.3552    0.0000 C   0  0  0  0  0  0  0  0  0  0  0  0
   -1.0067   -0.0629    0.0000 N   0  0  0  0  0  0  0  0  0  0  0  0
   -2.0890    0.9756    0.0000 C   0  0  0  0  0  0  0  0  0  0  0  0
   -3.5296    0.5575    0.0000 C   0  0  0  0  0  0  0  0  0  0  0  0
   -3.8878   -0.8991    0.0000 N   0  0  0  0  0  0  0  0  0  0  0  0
   -5.3283   -1.3172    0.0000 C   0  0  0  0  0  0  0  0  0  0  0  0
   -5.6865   -2.7738    0.0000 O   0  0  0  0  0  0  0  0  0  0  0  0
   -6.4107   -0.2787    0.0000 C   0  0  0  0  0  0  0  0  0  0  0  0
   -7.8870   -0.5440    0.0000 C   0  0  0  0  0  0  0  0  0  0  0  0
   -8.5955    0.7781    0.0000 C   0  0  0  0  0  0  0  0  0  0  0  0
   -7.5570    1.8605    0.0000 C   0  0  0  0  0  0  0  0  0  0  0  0
   -6.2067    1.2073    0.0000 O   0  0  0  0  0  0  0  0  0  0  0  0
   -2.8054   -1.9376    0.0000 C   0  0  0  0  0  0  0  0  0  0  0  0
   -1.3648   -1.5195    0.0000 C   0  0  0  0  0  0  0  0  0  0  0  0
    0.7921    1.8119    0.0000 N   0  0  0  0  0  0  0  0  0  0  0  0
    2.2326    2.2300    0.0000 C   0  0  0  0  0  0  0  0  0  0  0  0
    2.5908    3.6866    0.0000 N   0  0  0  0  0  0  0  0  0  0  0  0
    3.3150    1.1915    0.0000 C   0  0  0  0  0  0  0  0  0  0  0  0
    4.7555    1.6096    0.0000 C   0  0  0  0  0  0  0  0  0  0  0  0
    5.8379    0.5711    0.0000 C   0  0  0  0  0  0  0  0  0  0  0  0
    7.2784    0.9892    0.0000 O   0  0  0  0  0  0  0  0  0  0  0  0
    8.3608   -0.0492    0.0000 C   0  0  0  0  0  0  0  0  0  0  0  0
  1  2  1  0
  2  3  1  0
  3  4  2  0
  4  5  1  0
  5  6  2  0
  6  7  1  0
  7  8  1  0
  8  9  1  0
  9 10  1  0
 10 11  1  0
 11 12  1  0
 12 13  2  0
 14 12  1  6
 14 15  1  0
 15 16  1  0
 16 17  1  0
 17 18  1  0
 11 19  1  0
 19 20  1  0
  7 21  2  0
 21 22  1  0
 22 23  1  0
 22 24  2  0
 24 25  1  0
 25 26  2  0
 26 27  1  0
 27 28  1  0
 26  3  1  0
 24  5  1  0
 20  8  1  0
 18 14  1  0
M  END
> <Identifier>
TERAZOSIN

> <hERG>
1

$$$$

     RDKit          2D

 29 31  0  0  0  0  0  0  0  0999 V2000
   -7.9517    0.3980    0.0000 C   0  0  0  0  0  0  0  0  0  0  0  0
   -7.1419   -0.8647    0.0000 O   0  0  0  0  0  0  0  0  0  0  0  0
   -5.6436   -0.7948    0.0000 C   0  0  0  0  0  0  0  0  0  0  0  0
   -4.9549    0.5378    0.0000 C   0  0  0  0  0  0  0  0  0  0  0  0
   -3.4566    0.6078    0.0000 C   0  0  0  0  0  0  0  0  0  0  0  0
   -2.6468   -0.6549    0.0000 C   0  0  0  0  0  0  0  0  0  0  0  0
   -1.1485   -0.5849    0.0000 C   0  0  0  0  0  0  0  0  0  0  0  0
   -0.4353   -1.9046    0.0000 S   0  0  0  0  0  0  0  0  0  0  0  0
    1.0410   -2.1698    0.0000 C   0  0  0  0  0  0  0  0  0  0  0  0
    1.3335   -3.6410    0.0000 C   0  0  0  0  0  0  0  0  0  0  0  0
    2.7539   -4.1233    0.0000 C   0  0  0  0  0  0  0  0  0  0  0  0
    3.8817   -3.1344    0.0000 C   0  0  0  0  0  0  0  0  0  0  0  0
    3.5893   -1.6632    0.0000 C   0  0  0  0  0  0  0  0  0  0  0  0
    2.1689   -1.1809    0.0000 C   0  0  0  0  0  0  0  0  0  0  0  0
    2.0990    0.3175    0.0000 N   0  0  0  0  0  0  0  0  0  0  0  0
    3.4186    1.0306    0.0000 C   0  0  0  0  0  0  0  0  0  0  0  0
    4.6960    0.2443    0.0000 C   0  0  0  0  0  0  0  0  0  0  0  0
    6.0157    0.9574    0.0000 N   0  0  0  0  0  4  0  0  0  0  0  0
    7.2931    0.1712    0.0000 C   0  0  0  0  0  0  0  0  0  0  0  0
    6.0579    2.4568    0.0000 C   0  0  0  0  0  0  0  0  0  0  0  0
    0.8839    1.1970    0.0000 C   0  0  0  0  0  0  0  0  0  0  0  0
    1.1491    2.6734    0.0000 O   0  0  0  0  0  0  0  0  0  0  0  0
   -0.5613    0.7954    0.0000 C   0  0  0  0  0  0  0  0  0  0  0  0
   -1.5502    1.9233    0.0000 O   0  0  0  0  0  0  0  0  0  0  0  0
   -1.0679    3.3436    0.0000 C   0  0  0  0  0  0  0  0  0  0  0  0
   -2.0568    4.4715    0.0000 C   0  0  0  0  0  0  0  0  0  0  0  0
    0.4033    3.6361    0.0000 O   0  0  0  0  0  0  0  0  0  0  0  0
   -3.3354   -1.9875    0.0000 C   0  0  0  0  0  0  0  0  0  0  0  0
   -4.8338   -2.0574    0.0000 C   0  0  0  0  0  0  0  0  0  0  0  0
  1  2  1  0
  2  3  1  0
  3  4  2  0
  4  5  1  0
  5  6  2  0
  7  6  1  1
  7  8  1  0
  8  9  1  0
  9 10  2  0
 10 11  1  0
 11 12  2  0
 12 13  1  0
 13 14  2  0
 14 15  1  0
 15 16  1  0
 16 17  1  0
 17 18  1  0
 18 19  1  0
 18 20  1  0
 15 21  1  0
 21 22  2  0
 21 23  1  0
 23 24  1  1
 24 25  1  0
 25 26  1  0
 25 27  2  0
  6 28  1  0
 28 29  2  0
 29  3  1  0
 23  7  1  0
 14  9  1  0
M  CHG  1  18   1
M  END
> <Identifier>
DILTIAZEM

> <hERG>
1

$$$$

     RDKit          2D

 37 40  0  0  0  0  0  0  0  0999 V2000
   -9.2764   -1.7317    0.0000 C   0  0  0  0  0  0  0  0  0  0  0  0
   -9.6226   -0.2722    0.0000 C   0  0  0  0  0  0  0  0  0  0  0  0
   -9.9687    1.1873    0.0000 C   0  0  0  0  0  0  0  0  0  0  0  0
  -11.0821   -0.6183    0.0000 C   0  0  0  0  0  0  0  0  0  0  0  0
  -12.1116    0.4726    0.0000 O   0  0  0  0  0  0  0  0  0  0  0  0
  -11.5121   -2.0554    0.0000 O   0  0  0  0  0  0  0  0  0  0  0  0
   -8.1631    0.0740    0.0000 C   0  0  0  0  0  0  0  0  0  0  0  0
   -7.7331    1.5110    0.0000 C   0  0  0  0  0  0  0  0  0  0  0  0
   -6.2735    1.8571    0.0000 C   0  0  0  0  0  0  0  0  0  0  0  0
   -5.2440    0.7662    0.0000 C   0  0  0  0  0  0  0  0  0  0  0  0
   -3.7845    1.1124    0.0000 C   0  0  0  0  0  0  0  0  0  0  0  0
   -3.3545    2.5494    0.0000 O   0  0  0  0  0  0  0  0  0  0  0  0
   -2.7550    0.0215    0.0000 C   0  0  0  0  0  0  0  0  0  0  0  0
   -1.2955    0.3676    0.0000 C   0  0  0  0  0  0  0  0  0  0  0  0
   -0.2659   -0.7233    0.0000 C   0  0  0  0  0  0  0  0  0  0  0  0
    1.1936   -0.3772    0.0000 N   0  0  0  0  0  0  0  0  0  0  0  0
    2.2231   -1.4681    0.0000 C   0  0  0  0  0  0  0  0  0  0  0  0
    3.6826   -1.1220    0.0000 C   0  0  0  0  0  0  0  0  0  0  0  0
    4.1126    0.3151    0.0000 C   0  0  0  0  0  0  0  0  0  0  0  0
    5.5721    0.6612    0.0000 C   0  0  0  0  0  0  0  0  0  0  0  0
    5.2260    2.1207    0.0000 O   0  0  0  0  0  0  0  0  0  0  0  0
    7.0316    1.0073    0.0000 C   0  0  0  0  0  0  0  0  0  0  0  0
    8.0612   -0.0836    0.0000 C   0  0  0  0  0  0  0  0  0  0  0  0
    9.5207    0.2626    0.0000 C   0  0  0  0  0  0  0  0  0  0  0  0
    9.9507    1.6996    0.0000 C   0  0  0  0  0  0  0  0  0  0  0  0
    8.9212    2.7905    0.0000 C   0  0  0  0  0  0  0  0  0  0  0  0
    7.4616    2.4444    0.0000 C   0  0  0  0  0  0  0  0  0  0  0  0
    5.9183   -0.7983    0.0000 C   0  0  0  0  0  0  0  0  0  0  0  0
    4.8274   -1.8278    0.0000 C   0  0  0  0  0  0  0  0  0  0  0  0
    5.1735   -3.2873    0.0000 C   0  0  0  0  0  0  0  0  0  0  0  0
    6.6105   -3.7173    0.0000 C   0  0  0  0  0  0  0  0  0  0  0  0
    7.7014   -2.6878    0.0000 C   0  0  0  0  0  0  0  0  0  0  0  0
    7.3553   -1.2283    0.0000 C   0  0  0  0  0  0  0  0  0  0  0  0
    3.0831    1.4060    0.0000 C   0  0  0  0  0  0  0  0  0  0  0  0
    1.6236    1.0599    0.0000 C   0  0  0  0  0  0  0  0  0  0  0  0
   -5.6740   -0.6708    0.0000 C   0  0  0  0  0  0  0  0  0  0  0  0
   -7.1335   -1.0170    0.0000 C   0  0  0  0  0  0  0  0  0  0  0  0
  1  2  1  0
  2  3  1  0
  2  4  1  0
  4  5  2  0
  4  6  1  0
  2  7  1  0
  7  8  2  0
  8  9  1  0
  9 10  2  0
 10 11  1  0
 11 12  1  6
 11 13  1  0
 13 14  1  0
 14 15  1  0
 15 16  1  0
 16 17  1  0
 17 18  1  0
 18 19  1  0
 19 20  1  0
 20 21  1  0
 20 22  1  0
 22 23  2  0
 23 24  1  0
 24 25  2  0
 25 26  1  0
 26 27  2  0
 20 28  1  0
 28 29  2  0
 29 30  1  0
 30 31  2  0
 31 32  1  0
 32 33  2  0
 19 34  1  0
 34 35  1  0
 10 36  1  0
 36 37  2  0
 37  7  1  0
 35 16  1  0
 27 22  1  0
 33 28  1  0
M  END
> <Identifier>
FEXOFENADINE HYDROCHLORIDE

> <hERG>
1

$$$$

     RDKit          2D

 22 22  0  0  0  0  0  0  0  0999 V2000
    7.6106   -2.4005    0.0000 C   0  0  0  0  0  0  0  0  0  0  0  0
    7.6535   -0.9011    0.0000 O   0  0  0  0  0  0  0  0  0  0  0  0
    6.3764   -0.1142    0.0000 C   0  0  0  0  0  0  0  0  0  0  0  0
    5.0565   -0.8268    0.0000 C   0  0  0  0  0  0  0  0  0  0  0  0
    3.7794   -0.0399    0.0000 C   0  0  0  0  0  0  0  0  0  0  0  0
    2.4595   -0.7525    0.0000 C   0  0  0  0  0  0  0  0  0  0  0  0
    1.1824    0.0344    0.0000 N   0  0  0  0  0  0  0  0  0  0  0  0
   -0.1375   -0.6782    0.0000 C   0  0  0  0  0  0  0  0  0  0  0  0
   -0.1804   -2.1775    0.0000 O   0  0  0  0  0  0  0  0  0  0  0  0
   -1.4146    0.1087    0.0000 C   0  0  0  0  0  0  0  0  0  0  0  0
   -2.7346   -0.6039    0.0000 C   0  0  0  0  0  0  0  0  0  0  0  0
   -4.0116    0.1830    0.0000 C   0  0  0  0  0  0  0  0  0  0  0  0
   -5.3316   -0.5295    0.0000 C   0  0  0  0  0  0  0  0  0  0  0  0
   -6.6086    0.2573    0.0000 C   0  0  0  0  0  0  0  0  0  0  0  0
   -7.9286   -0.4552    0.0000 C   0  0  0  0  0  0  0  0  0  0  0  0
   -9.2056    0.3316    0.0000 C   0  0  0  0  0  0  0  0  0  0  0  0
  -10.5256   -0.3809    0.0000 C   0  0  0  0  0  0  0  0  0  0  0  0
   -9.1627    1.8310    0.0000 C   0  0  0  0  0  0  0  0  0  0  0  0
    3.8223    1.4595    0.0000 C   0  0  0  0  0  0  0  0  0  0  0  0
    5.1423    2.1720    0.0000 C   0  0  0  0  0  0  0  0  0  0  0  0
    6.4193    1.3851    0.0000 C   0  0  0  0  0  0  0  0  0  0  0  0
    7.7393    2.0977    0.0000 O   0  0  0  0  0  0  0  0  0  0  0  0
  1  2  1  0
  2  3  1  0
  3  4  2  0
  4  5  1  0
  5  6  1  0
  6  7  1  0
  7  8  1  0
  8  9  2  0
  8 10  1  0
 10 11  1  0
 11 12  1  0
 12 13  1  0
 13 14  1  0
 14 15  2  0
 15 16  1  0
 16 17  1  0
 16 18  1  0
  5 19  2  0
 19 20  1  0
 20 21  2  0
 21 22  1  0
 21  3  1  0
M  END
> <Identifier>
CAPSAICIN

> <hERG>
1

$$$$

     RDKit          2D

 27 30  0  0  0  0  0  0  0  0999 V2000
   -3.2838    0.7257    0.0000 O   0  0  0  0  0  0  0  0  0  0  0  0
   -1.9544    1.4204    0.0000 C   0  0  0  0  0  0  0  0  0  0  0  0
   -1.8913    2.9191    0.0000 C   0  0  0  0  0  0  0  0  0  0  0  0
   -0.5619    3.6138    0.0000 O   0  0  0  0  0  0  0  0  0  0  0  0
   -3.1576    3.7231    0.0000 C   0  0  0  0  0  0  0  0  0  0  0  0
   -4.6563    3.7862    0.0000 C   0  0  0  0  0  0  0  0  0  0  0  0
   -3.8523    5.0525    0.0000 C   0  0  0  0  0  0  0  0  0  0  0  0
   -0.6880    0.6164    0.0000 N   0  0  0  0  0  0  0  0  0  0  0  0
    0.7067    1.1684    0.0000 C   0  0  0  0  0  0  0  0  0  0  0  0
    1.6627    0.0124    0.0000 C   0  0  0  0  0  0  0  0  0  0  0  0
    3.1597    0.1063    0.0000 C   0  0  0  0  0  0  0  0  0  0  0  0
    3.9896   -1.1432    0.0000 C   0  0  0  0  0  0  0  0  0  0  0  0
    5.4866   -1.0493    0.0000 C   0  0  0  0  0  0  0  0  0  0  0  0
    6.3165   -2.2988    0.0000 F   0  0  0  0  0  0  0  0  0  0  0  0
    6.1538    0.2941    0.0000 C   0  0  0  0  0  0  0  0  0  0  0  0
    5.3240    1.5437    0.0000 C   0  0  0  0  0  0  0  0  0  0  0  0
    3.8269    1.4498    0.0000 C   0  0  0  0  0  0  0  0  0  0  0  0
    2.9971    2.6993    0.0000 F   0  0  0  0  0  0  0  0  0  0  0  0
    0.8587   -1.2539    0.0000 C   0  0  0  0  0  0  0  0  0  0  0  0
   -0.5941   -0.8806    0.0000 C   0  0  0  0  0  0  0  0  0  0  0  0
   -1.7501   -1.8365    0.0000 C   0  0  0  0  0  0  0  0  0  0  0  0
   -3.1559   -1.3134    0.0000 C   0  0  0  0  0  0  0  0  0  0  0  0
   -4.3119   -2.2693    0.0000 C   0  0  0  0  0  0  0  0  0  0  0  0
   -4.0620   -3.7484    0.0000 C   0  0  0  0  0  0  0  0  0  0  0  0
   -2.6562   -4.2715    0.0000 C   0  0  0  0  0  0  0  0  0  0  0  0
   -2.4063   -5.7505    0.0000 O   0  0  0  0  0  0  0  0  0  0  0  0
   -1.5002   -3.3156    0.0000 C   0  0  0  0  0  0  0  0  0  0  0  0
  1  2  2  0
  2  3  1  0
  3  4  1  6
  3  5  1  0
  5  6  1  0
  6  7  1  0
  2  8  1  0
  8  9  1  0
  9 10  1  0
 10 11  1  0
 11 12  2  0
 12 13  1  0
 13 14  1  0
 13 15  2  0
 15 16  1  0
 16 17  2  0
 17 18  1  0
 10 19  2  0
 19 20  1  0
 20 21  1  1
 21 22  2  0
 22 23  1  0
 23 24  2  0
 24 25  1  0
 25 26  1  0
 25 27  2  0
  7  5  1  0
 20  8  1  0
 27 21  1  0
 17 11  1  0
M  END
> <Identifier>
BMCL-16-2006-17782-17

> <hERG>
1

$$$$

     RDKit          2D

 28 31  0  0  0  0  0  0  0  0999 V2000
   -6.2013    2.3577    0.0000 C   0  0  0  0  0  0  0  0  0  0  0  0
   -5.2514    1.1968    0.0000 C   0  0  0  0  0  0  0  0  0  0  0  0
   -3.7711    1.4389    0.0000 C   0  0  0  0  0  0  0  0  0  0  0  0
   -2.8212    0.2780    0.0000 N   0  0  0  0  0  0  0  0  0  0  0  0
   -1.3409    0.5202    0.0000 C   0  0  0  0  0  0  0  0  0  0  0  0
   -0.8105    1.9233    0.0000 C   0  0  0  0  0  0  0  0  0  0  0  0
   -1.7604    3.0842    0.0000 F   0  0  0  0  0  0  0  0  0  0  0  0
    0.6698    2.1655    0.0000 C   0  0  0  0  0  0  0  0  0  0  0  0
    1.2003    3.5686    0.0000 N   0  0  0  0  0  0  0  0  0  0  0  0
    1.6197    1.0046    0.0000 C   0  0  0  0  0  0  0  0  0  0  0  0
    1.0893   -0.3985    0.0000 C   0  0  0  0  0  0  0  0  0  0  0  0
   -0.3910   -0.6407    0.0000 C   0  0  0  0  0  0  0  0  0  0  0  0
   -0.9214   -2.0438    0.0000 F   0  0  0  0  0  0  0  0  0  0  0  0
    2.0392   -1.5594    0.0000 N   0  0  0  0  0  4  0  0  0  0  0  0
    1.5088   -2.9625    0.0000 C   0  0  0  0  0  0  0  0  0  0  0  0
    1.7510   -4.4428    0.0000 C   0  0  0  0  0  0  0  0  0  0  0  0
    0.3479   -3.9124    0.0000 C   0  0  0  0  0  0  0  0  0  0  0  0
    3.5195   -1.3172    0.0000 C   0  0  0  0  0  0  0  0  0  0  0  0
    4.0500    0.0858    0.0000 C   0  0  0  0  0  0  0  0  0  0  0  0
    5.5303    0.3280    0.0000 C   0  0  0  0  0  0  0  0  0  0  0  0
    6.0607    1.7311    0.0000 O   0  0  0  0  0  0  0  0  0  0  0  0
    6.4802   -0.8329    0.0000 O   0  0  0  0  0  1  0  0  0  0  0  0
    3.1001    1.2467    0.0000 C   0  0  0  0  0  0  0  0  0  0  0  0
    3.6305    2.6498    0.0000 O   0  0  0  0  0  0  0  0  0  0  0  0
   -3.3516   -1.1251    0.0000 C   0  0  0  0  0  0  0  0  0  0  0  0
   -4.8320   -1.3672    0.0000 C   0  0  0  0  0  0  0  0  0  0  0  0
   -5.3624   -2.7703    0.0000 C   0  0  0  0  0  0  0  0  0  0  0  0
   -5.7819   -0.2063    0.0000 N   0  0  0  0  0  4  0  0  0  0  0  0
  2  1  1  1
  2  3  1  0
  3  4  1  0
  4  5  1  0
  5  6  2  0
  6  7  1  0
  6  8  1  0
  8  9  1  0
  8 10  2  0
 10 11  1  0
 11 12  2  0
 12 13  1  0
 11 14  1  0
 14 15  1  0
 15 16  1  0
 16 17  1  0
 14 18  2  0
 18 19  1  0
 19 20  1  6
 20 21  2  0
 20 22  1  0
 19 23  1  0
 23 24  2  0
  4 25  1  0
 25 26  1  0
 26 27  1  1
 26 28  1  0
 28  2  1  0
 12  5  1  0
 17 15  1  0
 23 10  1  0
M  CHG  3  14   1  22  -1  28   1
M  END
> <Identifier>
SPARFLOXACIN

> <hERG>
1

$$$$

     RDKit          2D

 19 20  0  0  0  0  0  0  0  0999 V2000
   -5.6651   -2.3469    0.0000 C   0  0  0  0  0  0  0  0  0  0  0  0
   -4.5394   -1.3556    0.0000 N   0  0  0  0  0  0  0  0  0  0  0  0
   -4.8351    0.1150    0.0000 C   0  0  0  0  0  0  0  0  0  0  0  0
   -3.1180   -1.8348    0.0000 C   0  0  0  0  0  0  0  0  0  0  0  0
   -1.9923   -0.8435    0.0000 C   0  0  0  0  0  0  0  0  0  0  0  0
   -0.5709   -1.3227    0.0000 O   0  0  0  0  0  0  0  0  0  0  0  0
    0.5548   -0.3314    0.0000 C   0  0  0  0  0  0  0  0  0  0  0  0
    1.9762   -0.8106    0.0000 C   0  0  0  0  0  0  0  0  0  0  0  0
    2.2718   -2.2812    0.0000 C   0  0  0  0  0  0  0  0  0  0  0  0
    3.6932   -2.7604    0.0000 C   0  0  0  0  0  0  0  0  0  0  0  0
    4.8189   -1.7691    0.0000 C   0  0  0  0  0  0  0  0  0  0  0  0
    4.5233   -0.2985    0.0000 C   0  0  0  0  0  0  0  0  0  0  0  0
    3.1019    0.1807    0.0000 C   0  0  0  0  0  0  0  0  0  0  0  0
    0.2591    1.1392    0.0000 C   0  0  0  0  0  0  0  0  0  0  0  0
    1.3848    2.1306    0.0000 C   0  0  0  0  0  0  0  0  0  0  0  0
    1.0892    3.6011    0.0000 C   0  0  0  0  0  0  0  0  0  0  0  0
   -0.3322    4.0804    0.0000 C   0  0  0  0  0  0  0  0  0  0  0  0
   -1.4579    3.0890    0.0000 C   0  0  0  0  0  0  0  0  0  0  0  0
   -1.1623    1.6184    0.0000 C   0  0  0  0  0  0  0  0  0  0  0  0
  1  2  1  0
  2  3  1  0
  2  4  1  0
  4  5  1  0
  5  6  1  0
  6  7  1  0
  7  8  1  0
  8  9  2  0
  9 10  1  0
 10 11  2  0
 11 12  1  0
 12 13  2  0
  7 14  1  0
 14 15  2  0
 15 16  1  0
 16 17  2  0
 17 18  1  0
 18 19  2  0
 13  8  1  0
 19 14  1  0
M  END
> <Identifier>
4,4'-DIMETHYLDIPHENHYDRAMINE

> <hERG>
1

$$$$

     RDKit          2D

 22 23  0  0  0  0  0  0  0  0999 V2000
    3.6706   -3.1080    0.0000 C   0  0  0  0  0  0  0  0  0  0  0  0
    2.8709   -1.8389    0.0000 C   0  0  0  0  0  0  0  0  0  0  0  0
    1.3720   -1.8969    0.0000 S   0  0  0  0  0  0  0  0  0  0  0  0
    1.3140   -0.3980    0.0000 O   0  0  0  0  0  0  0  0  0  0  0  0
    1.4300   -3.3958    0.0000 O   0  0  0  0  0  0  0  0  0  0  0  0
   -0.1268   -1.9549    0.0000 N   0  0  0  0  0  0  0  0  0  0  0  0
   -0.8260   -3.2820    0.0000 C   0  0  0  0  0  0  0  0  0  0  0  0
   -0.9265   -0.6859    0.0000 C   0  0  0  0  0  0  0  0  0  0  0  0
   -0.2273    0.6412    0.0000 C   0  0  0  0  0  0  0  0  0  0  0  0
    1.2716    0.6992    0.0000 C   0  0  0  0  0  0  0  0  0  0  0  0
    1.9707    2.0263    0.0000 C   0  0  0  0  0  0  0  0  0  0  0  0
    3.4696    2.0843    0.0000 C   0  0  0  0  0  0  0  0  0  0  0  0
    4.9685    2.1423    0.0000 N   0  0  0  0  0  0  0  0  0  0  0  0
    1.1711    3.2954    0.0000 C   0  0  0  0  0  0  0  0  0  0  0  0
   -0.3278    3.2373    0.0000 C   0  0  0  0  0  0  0  0  0  0  0  0
   -1.0270    1.9103    0.0000 C   0  0  0  0  0  0  0  0  0  0  0  0
   -2.5259    1.8523    0.0000 O   0  0  0  0  0  0  0  0  0  0  0  0
   -3.2251    0.5252    0.0000 C   0  0  0  0  0  0  0  0  0  0  0  0
   -4.4106    1.4442    0.0000 C   0  0  0  0  0  0  0  0  0  0  0  0
   -4.3360   -0.4827    0.0000 C   0  0  0  0  0  0  0  0  0  0  0  0
   -2.4254   -0.7439    0.0000 C   0  0  0  0  0  0  0  0  0  0  0  0
   -3.1246   -2.0710    0.0000 O   0  0  0  0  0  0  0  0  0  0  0  0
  1  2  1  0
  2  3  1  0
  3  4  2  0
  3  5  2  0
  3  6  1  0
  6  7  1  0
  8  6  1  6
  8  9  1  0
  9 10  2  0
 10 11  1  0
 11 12  1  0
 12 13  3  0
 11 14  2  0
 14 15  1  0
 15 16  2  0
 16 17  1  0
 17 18  1  0
 18 19  1  0
 18 20  1  0
 18 21  1  0
 21 22  1  1
 21  8  1  0
 16  9  1  0
M  END
> <Identifier>
CHROMANOLOL 293B

> <hERG>
1

$$$$

     RDKit          2D

 28 31  0  0  0  0  0  0  0  0999 V2000
    0.7660   -2.6389    0.0000 O   0  0  0  0  0  0  0  0  0  0  0  0
    1.2506   -1.2193    0.0000 C   0  0  0  0  0  0  0  0  0  0  0  0
    0.2634   -0.0899    0.0000 N   0  0  0  0  0  0  0  0  0  0  0  0
   -1.2082   -0.3801    0.0000 C   0  0  0  0  0  0  0  0  0  0  0  0
   -2.1954    0.7493    0.0000 C   0  0  0  0  0  0  0  0  0  0  0  0
   -3.6670    0.4591    0.0000 C   0  0  0  0  0  0  0  0  0  0  0  0
   -4.1516   -0.9604    0.0000 N   0  0  0  0  0  0  0  0  0  0  0  0
   -5.6232   -1.2506    0.0000 C   0  0  0  0  0  0  0  0  0  0  0  0
   -6.6103   -0.1212    0.0000 C   0  0  0  0  0  0  0  0  0  0  0  0
   -6.1258    1.2984    0.0000 C   0  0  0  0  0  0  0  0  0  0  0  0
   -7.1129    2.4278    0.0000 C   0  0  0  0  0  0  0  0  0  0  0  0
   -8.5846    2.1376    0.0000 C   0  0  0  0  0  0  0  0  0  0  0  0
   -9.0691    0.7180    0.0000 C   0  0  0  0  0  0  0  0  0  0  0  0
   -8.0820   -0.4114    0.0000 C   0  0  0  0  0  0  0  0  0  0  0  0
   -3.1644   -2.0899    0.0000 C   0  0  0  0  0  0  0  0  0  0  0  0
   -1.6928   -1.7997    0.0000 C   0  0  0  0  0  0  0  0  0  0  0  0
    2.7222   -0.9292    0.0000 C   0  0  0  0  0  0  0  0  0  0  0  0
    3.7094   -2.0586    0.0000 C   0  0  0  0  0  0  0  0  0  0  0  0
    5.1810   -1.7684    0.0000 C   0  0  0  0  0  0  0  0  0  0  0  0
    6.1682   -2.8978    0.0000 O   0  0  0  0  0  0  0  0  0  0  0  0
    5.6656   -0.3488    0.0000 C   0  0  0  0  0  0  0  0  0  0  0  0
    7.1372   -0.0586    0.0000 C   0  0  0  0  0  0  0  0  0  0  0  0
    7.6218    1.3610    0.0000 C   0  0  0  0  0  0  0  0  0  0  0  0
    6.6346    2.4904    0.0000 C   0  0  0  0  0  0  0  0  0  0  0  0
    7.1192    3.9100    0.0000 F   0  0  0  0  0  0  0  0  0  0  0  0
    5.1630    2.2002    0.0000 C   0  0  0  0  0  0  0  0  0  0  0  0
    4.6784    0.7806    0.0000 C   0  0  0  0  0  0  0  0  0  0  0  0
    3.2068    0.4904    0.0000 O   0  0  0  0  0  0  0  0  0  0  0  0
  1  2  2  0
  2  3  1  0
  3  4  1  0
  4  5  1  0
  5  6  1  0
  6  7  1  0
  7  8  1  0
  8  9  1  0
  9 10  2  0
 10 11  1  0
 11 12  2  0
 12 13  1  0
 13 14  2  0
  7 15  1  0
 15 16  1  0
  2 17  1  0
 17 18  2  0
 18 19  1  0
 19 20  2  0
 19 21  1  0
 21 22  2  0
 22 23  1  0
 23 24  2  0
 24 25  1  0
 24 26  1  0
 26 27  2  0
 27 28  1  0
 16  4  1  0
 28 17  1  0
 14  9  1  0
 27 21  1  0
M  END
> <Identifier>
JMC20066569-40

> <hERG>
1

$$$$

     RDKit          2D

 21 23  0  0  0  0  0  0  0  0999 V2000
   -2.3793   -2.4215    0.0000 C   0  0  0  0  0  0  0  0  0  0  0  0
   -3.0369   -1.0734    0.0000 C   0  0  0  0  0  0  0  0  0  0  0  0
   -4.5333   -0.9688    0.0000 C   0  0  0  0  0  0  0  0  0  0  0  0
   -5.1909    0.3794    0.0000 C   0  0  0  0  0  0  0  0  0  0  0  0
   -4.3522    1.6230    0.0000 C   0  0  0  0  0  0  0  0  0  0  0  0
   -2.8558    1.5184    0.0000 C   0  0  0  0  0  0  0  0  0  0  0  0
   -2.0171    2.7620    0.0000 C   0  0  0  0  0  0  0  0  0  0  0  0
   -2.1982    0.1702    0.0000 C   0  0  0  0  0  0  0  0  0  0  0  0
   -0.7018    0.0657    0.0000 N   0  0  0  0  0  0  0  0  0  0  0  0
   -0.0442   -1.2825    0.0000 C   0  0  0  0  0  0  0  0  0  0  0  0
   -0.8830   -2.5261    0.0000 O   0  0  0  0  0  0  0  0  0  0  0  0
    1.4521   -1.3871    0.0000 C   0  0  0  0  0  0  0  0  0  0  0  0
    2.1097   -2.7352    0.0000 C   0  0  0  0  0  0  0  0  0  0  0  0
    3.6061   -2.8398    0.0000 C   0  0  0  0  0  0  0  0  0  0  0  0
    4.4448   -1.5962    0.0000 C   0  0  0  0  0  0  0  0  0  0  0  0
    3.7872   -0.2480    0.0000 C   0  0  0  0  0  0  0  0  0  0  0  0
    2.2909   -0.1435    0.0000 N   0  0  0  0  0  4  0  0  0  0  0  0
    1.6332    1.2047    0.0000 C   0  0  0  0  0  0  0  0  0  0  0  0
    2.4720    2.4483    0.0000 C   0  0  0  0  0  0  0  0  0  0  0  0
    2.5765    3.9446    0.0000 C   0  0  0  0  0  0  0  0  0  0  0  0
    3.8201    3.1059    0.0000 C   0  0  0  0  0  0  0  0  0  0  0  0
  1  2  1  0
  2  3  2  0
  3  4  1  0
  4  5  2  0
  5  6  1  0
  6  7  1  0
  6  8  2  0
  8  9  1  0
  9 10  1  0
 10 11  2  0
 12 10  1  6
 12 13  1  0
 13 14  1  0
 14 15  1  0
 15 16  1  0
 16 17  1  0
 17 18  1  0
 18 19  1  0
 19 20  1  0
 20 21  1  0
  8  2  1  0
 17 12  1  0
 21 19  1  0
M  CHG  1  17   1
M  END
> <Identifier>
IQB-9302

> <hERG>
1

$$$$

     RDKit          2D

 32 36  0  0  0  0  0  0  0  0999 V2000
   -2.2684   -3.3563    0.0000 C   0  0  0  0  0  0  0  0  0  0  0  0
   -1.3278   -2.1879    0.0000 N   0  0  0  0  0  0  0  0  0  0  0  0
    0.1544   -2.4183    0.0000 C   0  0  0  0  0  0  0  0  0  0  0  0
    1.0951   -1.2498    0.0000 C   0  0  0  0  0  0  0  0  0  0  0  0
    2.5773   -1.4802    0.0000 C   0  0  0  0  0  0  0  0  0  0  0  0
    3.5179   -0.3118    0.0000 N   0  0  0  0  0  0  0  0  0  0  0  0
    4.9787   -0.6523    0.0000 C   0  0  0  0  0  0  0  0  0  0  0  0
    5.1955   -2.1365    0.0000 C   0  0  0  0  0  0  0  0  0  0  0  0
    6.5892   -2.6910    0.0000 C   0  0  0  0  0  0  0  0  0  0  0  0
    7.7663   -1.7611    0.0000 C   0  0  0  0  0  0  0  0  0  0  0  0
    7.5495   -0.2769    0.0000 C   0  0  0  0  0  0  0  0  0  0  0  0
    6.1558    0.2776    0.0000 C   0  0  0  0  0  0  0  0  0  0  0  0
    6.1626    1.7775    0.0000 C   0  0  0  0  0  0  0  0  0  0  0  0
    4.9942    2.7182    0.0000 C   0  0  0  0  0  0  0  0  0  0  0  0
    3.5303    2.3911    0.0000 C   0  0  0  0  0  0  0  0  0  0  0  0
    2.6910    3.6343    0.0000 C   0  0  0  0  0  0  0  0  0  0  0  0
    1.1947    3.5291    0.0000 C   0  0  0  0  0  0  0  0  0  0  0  0
    0.5377    2.1807    0.0000 C   0  0  0  0  0  0  0  0  0  0  0  0
    1.3770    0.9374    0.0000 C   0  0  0  0  0  0  0  0  0  0  0  0
    2.8733    1.0427    0.0000 C   0  0  0  0  0  0  0  0  0  0  0  0
   -1.8693   -0.7891    0.0000 C   0  0  0  0  0  0  0  0  0  0  0  0
   -0.9287    0.3794    0.0000 O   0  0  0  0  0  0  0  0  0  0  0  0
   -3.3515   -0.5587    0.0000 C   0  0  0  0  0  0  0  0  0  0  0  0
   -4.0364    0.7758    0.0000 C   0  0  0  0  0  0  0  0  0  0  0  0
   -5.5172    0.5369    0.0000 C   0  0  0  0  0  0  0  0  0  0  0  0
   -6.6857    1.4775    0.0000 C   0  0  0  0  0  0  0  0  0  0  0  0
   -8.0845    0.9359    0.0000 C   0  0  0  0  0  0  0  0  0  0  0  0
   -9.2529    1.8766    0.0000 Cl  0  0  0  0  0  0  0  0  0  0  0  0
   -8.3149   -0.5463    0.0000 C   0  0  0  0  0  0  0  0  0  0  0  0
   -7.1464   -1.4869    0.0000 C   0  0  0  0  0  0  0  0  0  0  0  0
   -5.7476   -0.9453    0.0000 C   0  0  0  0  0  0  0  0  0  0  0  0
   -4.4091   -1.6224    0.0000 O   0  0  0  0  0  0  0  0  0  0  0  0
  1  2  1  0
  2  3  1  0
  3  4  1  0
  4  5  1  0
  5  6  1  0
  6  7  1  0
  7  8  2  0
  8  9  1  0
  9 10  2  0
 10 11  1  0
 11 12  2  0
 12 13  1  0
 13 14  1  0
 14 15  1  0
 15 16  2  0
 16 17  1  0
 17 18  2  0
 18 19  1  0
 19 20  2  0
  2 21  1  0
 21 22  2  0
 21 23  1  0
 23 24  2  0
 24 25  1  0
 25 26  2  0
 26 27  1  0
 27 28  1  0
 27 29  2  0
 29 30  1  0
 30 31  2  0
 31 32  1  0
 20  6  1  0
 32 23  1  0
 12  7  1  0
 20 15  1  0
 31 25  1  0
M  END
> <Identifier>
5-CHLORO-N-[3-(10,11-DIHYDRO-5H-DIBENZO[B,F]AZEPIN-5-YL)PROPYL]-N-METHYL-1-BENZOFURAN-2-CARBOXAMIDE

> <hERG>
1

$$$$

     RDKit          2D

 31 34  0  0  0  0  0  0  0  0999 V2000
   -8.5142    3.5177    0.0000 C   0  0  0  0  0  0  0  0  0  0  0  0
   -8.8575    2.0575    0.0000 C   0  0  0  0  0  0  0  0  0  0  0  0
  -10.2937    1.6247    0.0000 O   0  0  0  0  0  0  0  0  0  0  0  0
   -7.7646    1.0301    0.0000 C   0  0  0  0  0  0  0  0  0  0  0  0
   -6.3284    1.4629    0.0000 C   0  0  0  0  0  0  0  0  0  0  0  0
   -5.2354    0.4355    0.0000 C   0  0  0  0  0  0  0  0  0  0  0  0
   -5.5787   -1.0247    0.0000 C   0  0  0  0  0  0  0  0  0  0  0  0
   -4.4858   -2.0521    0.0000 C   0  0  0  0  0  0  0  0  0  0  0  0
   -3.0496   -1.6193    0.0000 N   0  0  0  0  0  0  0  0  0  0  0  0
   -1.9567   -2.6466    0.0000 C   0  0  0  0  0  0  0  0  0  0  0  0
   -0.5205   -2.2138    0.0000 C   0  0  0  0  0  0  0  0  0  0  0  0
   -0.1772   -0.7536    0.0000 C   0  0  0  0  0  0  0  0  0  0  0  0
    1.2590   -0.3208    0.0000 N   0  0  0  0  0  0  0  0  0  0  0  0
    2.3519   -1.3482    0.0000 C   0  0  0  0  0  0  0  0  0  0  0  0
    2.0087   -2.8084    0.0000 O   0  0  0  0  0  0  0  0  0  0  0  0
    3.7882   -0.9154    0.0000 C   0  0  0  0  0  0  0  0  0  0  0  0
    4.8811   -1.9428    0.0000 C   0  0  0  0  0  0  0  0  0  0  0  0
    6.3173   -1.5100    0.0000 C   0  0  0  0  0  0  0  0  0  0  0  0
    7.4102   -2.5374    0.0000 O   0  0  0  0  0  0  0  0  0  0  0  0
    6.6606   -0.0498    0.0000 C   0  0  0  0  0  0  0  0  0  0  0  0
    8.0968    0.3830    0.0000 C   0  0  0  0  0  0  0  0  0  0  0  0
    8.4400    1.8432    0.0000 C   0  0  0  0  0  0  0  0  0  0  0  0
    7.3471    2.8706    0.0000 C   0  0  0  0  0  0  0  0  0  0  0  0
    7.6904    4.3308    0.0000 F   0  0  0  0  0  0  0  0  0  0  0  0
    5.9109    2.4378    0.0000 C   0  0  0  0  0  0  0  0  0  0  0  0
    5.5676    0.9776    0.0000 C   0  0  0  0  0  0  0  0  0  0  0  0
    4.1314    0.5448    0.0000 O   0  0  0  0  0  0  0  0  0  0  0  0
   -1.2701    0.2737    0.0000 C   0  0  0  0  0  0  0  0  0  0  0  0
   -2.7063   -0.1591    0.0000 C   0  0  0  0  0  0  0  0  0  0  0  0
   -7.0149   -1.4575    0.0000 C   0  0  0  0  0  0  0  0  0  0  0  0
   -8.1078   -0.4301    0.0000 C   0  0  0  0  0  0  0  0  0  0  0  0
  1  2  1  0
  2  3  2  0
  2  4  1  0
  4  5  2  0
  5  6  1  0
  6  7  2  0
  7  8  1  0
  8  9  1  0
  9 10  1  0
 10 11  1  0
 11 12  1  0
 12 13  1  0
 13 14  1  0
 14 15  2  0
 14 16  1  0
 16 17  2  0
 17 18  1  0
 18 19  2  0
 18 20  1  0
 20 21  2  0
 21 22  1  0
 22 23  2  0
 23 24  1  0
 23 25  1  0
 25 26  2  0
 26 27  1  0
 12 28  1  0
 28 29  1  0
  7 30  1  0
 30 31  2  0
 31  4  1  0
 29  9  1  0
 27 16  1  0
 26 20  1  0
M  END
> <Identifier>
JMC20066569-53

> <hERG>
1

$$$$

     RDKit          2D

 28 29  0  0  0  0  0  0  0  0999 V2000
   -5.4682   -2.7279    0.0000 C   0  0  0  0  0  0  0  0  0  0  0  0
   -4.8755   -1.3500    0.0000 C   0  0  0  0  0  0  0  0  0  0  0  0
   -3.3858   -1.1744    0.0000 C   0  0  0  0  0  0  0  0  0  0  0  0
   -2.7931    0.2036    0.0000 O   0  0  0  0  0  0  0  0  0  0  0  0
   -1.3034    0.3792    0.0000 C   0  0  0  0  0  0  0  0  0  0  0  0
    0.1863    0.5549    0.0000 C   0  0  0  0  0  0  0  0  0  0  0  0
    0.7790    1.9328    0.0000 O   0  0  0  0  0  0  0  0  0  0  0  0
    1.0833   -0.6474    0.0000 O   0  0  0  0  0  0  0  0  0  0  0  0
    2.5729   -0.4717    0.0000 C   0  0  0  0  0  0  0  0  0  0  0  0
    3.4699   -1.6740    0.0000 C   0  0  0  0  0  0  0  0  0  0  0  0
    4.9596   -1.4984    0.0000 C   0  0  0  0  0  0  0  0  0  0  0  0
    5.5523   -0.1204    0.0000 N   0  0  0  0  0  0  0  0  0  0  0  0
    7.0420    0.0552    0.0000 C   0  0  0  0  0  0  0  0  0  0  0  0
    4.6553    1.0818    0.0000 C   0  0  0  0  0  0  0  0  0  0  0  0
    3.1657    0.9062    0.0000 C   0  0  0  0  0  0  0  0  0  0  0  0
   -1.1277   -1.1105    0.0000 C   0  0  0  0  0  0  0  0  0  0  0  0
   -2.3300   -2.0074    0.0000 C   0  0  0  0  0  0  0  0  0  0  0  0
   -2.1543   -3.4971    0.0000 C   0  0  0  0  0  0  0  0  0  0  0  0
   -0.7764   -4.0898    0.0000 C   0  0  0  0  0  0  0  0  0  0  0  0
    0.4259   -3.1929    0.0000 C   0  0  0  0  0  0  0  0  0  0  0  0
    0.2502   -1.7032    0.0000 C   0  0  0  0  0  0  0  0  0  0  0  0
   -1.4790    1.8689    0.0000 C   0  0  0  0  0  0  0  0  0  0  0  0
   -0.2768    2.7659    0.0000 C   0  0  0  0  0  0  0  0  0  0  0  0
   -0.4524    4.2555    0.0000 C   0  0  0  0  0  0  0  0  0  0  0  0
   -1.8303    4.8483    0.0000 C   0  0  0  0  0  0  0  0  0  0  0  0
   -3.0326    3.9513    0.0000 C   0  0  0  0  0  0  0  0  0  0  0  0
   -2.8570    2.4616    0.0000 C   0  0  0  0  0  0  0  0  0  0  0  0
    0.0000    5.8483    0.0000 Cl  0  0  0  0  0  0  0  0  0  0  0  0
  1  2  1  0
  2  3  1  0
  3  4  1  0
  4  5  1  0
  5  6  1  0
  6  7  2  0
  6  8  1  0
  8  9  1  0
  9 10  1  0
 10 11  1  0
 11 12  1  0
 12 13  1  0
 12 14  1  0
 14 15  1  0
  5 16  1  0
 16 17  2  0
 17 18  1  0
 18 19  2  0
 19 20  1  0
 20 21  2  0
  5 22  1  0
 22 23  2  0
 23 24  1  0
 24 25  2  0
 25 26  1  0
 26 27  2  0
 15  9  1  0
 21 16  1  0
 27 22  1  0
M  END
> <Identifier>
ROPIVACAINEHCL

> <hERG>
1

$$$$

     RDKit          2D

 20 22  0  0  0  0  0  0  0  0999 V2000
   -3.6736   -2.7545    0.0000 C   0  0  0  0  0  0  0  0  0  0  0  0
   -3.7258   -1.2554    0.0000 C   0  0  0  0  0  0  0  0  0  0  0  0
   -5.0501   -0.5510    0.0000 C   0  0  0  0  0  0  0  0  0  0  0  0
   -5.1023    0.9481    0.0000 C   0  0  0  0  0  0  0  0  0  0  0  0
   -3.8302    1.7428    0.0000 C   0  0  0  0  0  0  0  0  0  0  0  0
   -2.5058    1.0385    0.0000 C   0  0  0  0  0  0  0  0  0  0  0  0
   -1.2337    1.8332    0.0000 C   0  0  0  0  0  0  0  0  0  0  0  0
   -2.4536   -0.4606    0.0000 C   0  0  0  0  0  0  0  0  0  0  0  0
   -1.1293   -1.1650    0.0000 N   0  0  0  0  0  0  0  0  0  0  0  0
    0.1429   -0.3703    0.0000 C   0  0  0  0  0  0  0  0  0  0  0  0
    0.0907    1.1288    0.0000 O   0  0  0  0  0  0  0  0  0  0  0  0
    1.4672   -1.0746    0.0000 C   0  0  0  0  0  0  0  0  0  0  0  0
    2.7394   -0.2799    0.0000 C   0  0  0  0  0  0  0  0  0  0  0  0
    1.5904    0.6844    0.0000 C   0  0  0  0  0  0  0  0  0  0  0  0
    2.1525    2.0751    0.0000 C   0  0  0  0  0  0  0  0  0  0  0  0
    3.6488    1.9703    0.0000 C   0  0  0  0  0  0  0  0  0  0  0  0
    4.0115    0.5149    0.0000 N   0  0  0  0  0  4  0  0  0  0  0  0
    5.1605   -0.4494    0.0000 C   0  0  0  0  0  0  0  0  0  0  0  0
    4.5984   -1.8402    0.0000 C   0  0  0  0  0  0  0  0  0  0  0  0
    3.1021   -1.7354    0.0000 C   0  0  0  0  0  0  0  0  0  0  0  0
  1  2  1  0
  2  3  2  0
  3  4  1  0
  4  5  2  0
  5  6  1  0
  6  7  1  0
  6  8  2  0
  8  9  1  0
  9 10  1  0
 10 11  2  0
 10 12  1  0
 12 13  1  0
 13 14  1  0
 14 15  1  0
 15 16  1  0
 16 17  1  0
 17 18  1  0
 18 19  1  0
 19 20  1  0
  8  2  1  0
 17 13  1  0
 20 13  1  0
M  CHG  1  17   1
M  END
> <Identifier>
PILSICAINIDE

> <hERG>
1

$$$$

     RDKit          2D

 21 22  0  0  0  0  0  0  0  0999 V2000
   -2.6470   -5.0080    0.0000 C   0  0  0  0  0  0  0  0  0  0  0  0
   -1.8329   -3.7482    0.0000 C   0  0  0  0  0  0  0  0  0  0  0  0
   -2.5169   -2.4132    0.0000 C   0  0  0  0  0  0  0  0  0  0  0  0
   -1.7028   -1.1534    0.0000 C   0  0  0  0  0  0  0  0  0  0  0  0
   -2.3868    0.1816    0.0000 N   0  0  0  0  0  0  0  0  0  0  0  0
   -3.8849    0.2567    0.0000 C   0  0  0  0  0  0  0  0  0  0  0  0
   -4.5689    1.5917    0.0000 C   0  0  0  0  0  0  0  0  0  0  0  0
   -3.7548    2.8516    0.0000 C   0  0  0  0  0  0  0  0  0  0  0  0
   -2.2566    2.7764    0.0000 C   0  0  0  0  0  0  0  0  0  0  0  0
   -1.5726    1.4415    0.0000 C   0  0  0  0  0  0  0  0  0  0  0  0
   -0.0745    1.3663    0.0000 C   0  0  0  0  0  0  0  0  0  0  0  0
    0.7396    2.6262    0.0000 O   0  0  0  0  0  0  0  0  0  0  0  0
    0.6095    0.0314    0.0000 N   0  0  0  0  0  0  0  0  0  0  0  0
    2.1076   -0.0437    0.0000 C   0  0  0  0  0  0  0  0  0  0  0  0
    2.7916   -1.3787    0.0000 C   0  0  0  0  0  0  0  0  0  0  0  0
    1.9775   -2.6386    0.0000 C   0  0  0  0  0  0  0  0  0  0  0  0
    4.2897   -1.4538    0.0000 C   0  0  0  0  0  0  0  0  0  0  0  0
    5.1038   -0.1940    0.0000 C   0  0  0  0  0  0  0  0  0  0  0  0
    4.4198    1.1410    0.0000 C   0  0  0  0  0  0  0  0  0  0  0  0
    2.9217    1.2161    0.0000 C   0  0  0  0  0  0  0  0  0  0  0  0
    2.2377    2.5511    0.0000 C   0  0  0  0  0  0  0  0  0  0  0  0
  1  2  1  0
  2  3  1  0
  3  4  1  0
  4  5  1  0
  5  6  1  0
  6  7  1  0
  7  8  1  0
  8  9  1  0
  9 10  1  0
 10 11  1  6
 11 12  2  0
 11 13  1  0
 13 14  1  0
 14 15  2  0
 15 16  1  0
 15 17  1  0
 17 18  2  0
 18 19  1  0
 19 20  2  0
 20 21  1  0
 10  5  1  0
 20 14  1  0
M  END
> <Identifier>
LEVOBUPIVACAINE HYDROCHLORIDE

> <hERG>
1

$$$$

     RDKit          2D

 15 17  0  0  0  0  0  0  0  0999 V2000
   -4.1825   -1.6837    0.0000 C   0  0  0  0  0  0  0  0  0  0  0  0
   -3.0901   -0.6558    0.0000 C   0  0  0  0  0  0  0  0  0  0  0  0
   -3.4341    0.8042    0.0000 C   0  0  0  0  0  0  0  0  0  0  0  0
   -2.3417    1.8322    0.0000 C   0  0  0  0  0  0  0  0  0  0  0  0
   -0.9053    1.4001    0.0000 C   0  0  0  0  0  0  0  0  0  0  0  0
   -0.5612   -0.0599    0.0000 C   0  0  0  0  0  0  0  0  0  0  0  0
   -1.6536   -1.0879    0.0000 N   0  0  0  0  0  0  0  0  0  0  0  0
    0.9336   -0.1839    0.0000 N   0  0  0  0  0  0  0  0  0  0  0  0
    1.8417   -1.3778    0.0000 C   0  0  0  0  0  0  0  0  0  0  0  0
    1.2619   -2.7612    0.0000 C   0  0  0  0  0  0  0  0  0  0  0  0
    3.3297   -1.1883    0.0000 C   0  0  0  0  0  0  0  0  0  0  0  0
    3.9096    0.1951    0.0000 N   0  0  0  0  0  0  0  0  0  0  0  0
    3.0015    1.3890    0.0000 C   0  0  0  0  0  0  0  0  0  0  0  0
    1.5135    1.1995    0.0000 C   0  0  0  0  0  0  0  0  0  0  0  0
    0.3770    2.1784    0.0000 C   0  0  0  0  0  0  0  0  0  0  0  0
  1  2  1  0
  2  3  2  0
  3  4  1  0
  4  5  2  0
  5  6  1  0
  6  7  2  0
  6  8  1  0
  8  9  1  0
  9 10  1  1
  9 11  1  0
 11 12  1  0
 12 13  1  0
 14 13  1  6
 14 15  1  0
  7  2  1  0
 14  8  1  0
 15  5  1  0
M  END
> <Identifier>
(5AR,9R)-2,9-DIMETHYL-5,5A,6,7,8,9-HEXAHYDROPYRIDO[3',2':4,5]PYRROLO[1,2-A]PYRAZINE

> <hERG>
1

$$$$

     RDKit          2D

 23 25  0  0  0  0  0  0  0  0999 V2000
    2.8295    3.6943    0.0000 C   0  0  0  0  0  0  0  0  0  0  0  0
    2.3905    2.2600    0.0000 C   0  0  0  0  0  0  0  0  0  0  0  0
    3.4132    1.1626    0.0000 C   0  0  0  0  0  0  0  0  0  0  0  0
    4.9021    1.3451    0.0000 C   0  0  0  0  0  0  0  0  0  0  0  0
    5.6297    2.6568    0.0000 C   0  0  0  0  0  0  0  0  0  0  0  0
    5.5357   -0.0146    0.0000 N   0  0  0  0  0  0  0  0  0  0  0  0
    4.4384   -1.0373    0.0000 C   0  0  0  0  0  0  0  0  0  0  0  0
    3.1266   -0.3097    0.0000 C   0  0  0  0  0  0  0  0  0  0  0  0
    1.8407   -1.0819    0.0000 C   0  0  0  0  0  0  0  0  0  0  0  0
    0.5289   -0.3544    0.0000 N   0  0  0  0  0  0  0  0  0  0  0  0
   -0.7570   -1.1266    0.0000 N   0  0  0  0  0  0  0  0  0  0  0  0
   -2.0688   -0.3990    0.0000 C   0  0  0  0  0  0  0  0  0  0  0  0
   -2.0945    1.1008    0.0000 O   0  0  0  0  0  0  0  0  0  0  0  0
   -3.3547   -1.1712    0.0000 N   0  0  0  0  0  0  0  0  0  0  0  0
   -4.6664   -0.4437    0.0000 C   0  0  0  0  0  0  0  0  0  0  0  0
   -4.6922    1.0561    0.0000 C   0  0  0  0  0  0  0  0  0  0  0  0
   -6.0040    1.7837    0.0000 C   0  0  0  0  0  0  0  0  0  0  0  0
   -7.2899    1.0114    0.0000 C   0  0  0  0  0  0  0  0  0  0  0  0
   -7.2641   -0.4883    0.0000 C   0  0  0  0  0  0  0  0  0  0  0  0
   -5.9524   -1.2159    0.0000 C   0  0  0  0  0  0  0  0  0  0  0  0
    1.8665   -2.5817    0.0000 C   0  0  0  0  0  0  0  0  0  0  0  0
    3.1782   -3.3093    0.0000 C   0  0  0  0  0  0  0  0  0  0  0  0
    4.4642   -2.5371    0.0000 C   0  0  0  0  0  0  0  0  0  0  0  0
  1  2  1  0
  2  3  1  0
  3  4  2  0
  4  5  1  0
  4  6  1  0
  6  7  1  0
  7  8  2  0
  8  9  1  0
  9 10  2  0
 10 11  1  0
 11 12  1  0
 12 13  2  0
 12 14  1  0
 14 15  1  0
 15 16  2  0
 16 17  1  0
 17 18  2  0
 18 19  1  0
 19 20  2  0
  9 21  1  0
 21 22  1  0
 22 23  1  0
  8  3  1  0
 20 15  1  0
 23  7  1  0
M  END
> <Identifier>
BMCL-16-2006-5861-8i

> <hERG>
1

$$$$

     RDKit          2D

 19 20  0  0  0  0  0  0  0  0999 V2000
   -4.9080    2.2582    0.0000 C   0  0  0  0  0  0  0  0  0  0  0  0
   -3.4178    2.4292    0.0000 N   0  0  0  0  0  4  0  0  0  0  0  0
   -2.8208    3.8053    0.0000 C   0  0  0  0  0  0  0  0  0  0  0  0
   -2.5245    1.2242    0.0000 C   0  0  0  0  0  0  0  0  0  0  0  0
   -1.0343    1.3953    0.0000 C   0  0  0  0  0  0  0  0  0  0  0  0
   -0.1410    0.1903    0.0000 C   0  0  0  0  0  0  0  0  0  0  0  0
    1.3492    0.3613    0.0000 C   0  0  0  0  0  0  0  0  0  0  0  0
    2.2424   -0.8437    0.0000 C   0  0  0  0  0  0  0  0  0  0  0  0
    3.7326   -0.6726    0.0000 C   0  0  0  0  0  0  0  0  0  0  0  0
    4.3296    0.7035    0.0000 C   0  0  0  0  0  0  0  0  0  0  0  0
    5.8198    0.8746    0.0000 Cl  0  0  0  0  0  0  0  0  0  0  0  0
    3.4363    1.9085    0.0000 C   0  0  0  0  0  0  0  0  0  0  0  0
    1.9461    1.7374    0.0000 C   0  0  0  0  0  0  0  0  0  0  0  0
   -0.7380   -1.1858    0.0000 C   0  0  0  0  0  0  0  0  0  0  0  0
   -2.2282   -1.3569    0.0000 C   0  0  0  0  0  0  0  0  0  0  0  0
   -2.8252   -2.7330    0.0000 C   0  0  0  0  0  0  0  0  0  0  0  0
   -1.9319   -3.9380    0.0000 C   0  0  0  0  0  0  0  0  0  0  0  0
   -0.4417   -3.7670    0.0000 C   0  0  0  0  0  0  0  0  0  0  0  0
    0.1553   -2.3909    0.0000 N   0  0  0  0  0  0  0  0  0  0  0  0
  1  2  1  0
  2  3  1  0
  2  4  1  0
  4  5  1  0
  6  5  1  6
  6  7  1  0
  7  8  2  0
  8  9  1  0
  9 10  2  0
 10 11  1  0
 10 12  1  0
 12 13  2  0
  6 14  1  0
 14 15  2  0
 15 16  1  0
 16 17  2  0
 17 18  1  0
 18 19  2  0
 13  7  1  0
 19 14  1  0
M  CHG  1   2   1
M  END
> <Identifier>
CHLORPHENIRAMINE

> <hERG>
1

$$$$

     RDKit          2D

 25 27  0  0  0  0  0  0  0  0999 V2000
   -7.9441    1.7465    0.0000 C   0  0  0  0  0  0  0  0  0  0  0  0
   -7.0655    0.5307    0.0000 O   0  0  0  0  0  0  0  0  0  0  0  0
   -5.5733    0.6837    0.0000 C   0  0  0  0  0  0  0  0  0  0  0  0
   -4.9597    2.0524    0.0000 C   0  0  0  0  0  0  0  0  0  0  0  0
   -3.4675    2.2054    0.0000 C   0  0  0  0  0  0  0  0  0  0  0  0
   -2.5890    0.9896    0.0000 C   0  0  0  0  0  0  0  0  0  0  0  0
   -1.0968    1.1426    0.0000 C   0  0  0  0  0  0  0  0  0  0  0  0
   -0.2182   -0.0732    0.0000 C   0  0  0  0  0  0  0  0  0  0  0  0
    1.2740    0.0798    0.0000 O   0  0  0  0  0  0  0  0  0  0  0  0
    2.1525   -1.1360    0.0000 C   0  0  0  0  0  0  0  0  0  0  0  0
    1.5389   -2.5048    0.0000 C   0  0  0  0  0  0  0  0  0  0  0  0
    2.4175   -3.7206    0.0000 C   0  0  0  0  0  0  0  0  0  0  0  0
    3.9096   -3.5676    0.0000 C   0  0  0  0  0  0  0  0  0  0  0  0
    4.5233   -2.1988    0.0000 C   0  0  0  0  0  0  0  0  0  0  0  0
    3.6447   -0.9831    0.0000 C   0  0  0  0  0  0  0  0  0  0  0  0
    4.2583    0.3857    0.0000 N   0  0  0  0  0  0  0  0  0  0  0  0
    3.5116    1.6867    0.0000 C   0  0  0  0  0  0  0  0  0  0  0  0
    4.5182    2.7988    0.0000 C   0  0  0  0  0  0  0  0  0  0  0  0
    5.8869    2.1852    0.0000 C   0  0  0  0  0  0  0  0  0  0  0  0
    7.1879    2.9318    0.0000 O   0  0  0  0  0  0  0  0  0  0  0  0
    5.7263    0.6938    0.0000 C   0  0  0  0  0  0  0  0  0  0  0  0
   -3.2026   -0.3791    0.0000 C   0  0  0  0  0  0  0  0  0  0  0  0
   -4.6948   -0.5321    0.0000 C   0  0  0  0  0  0  0  0  0  0  0  0
   -5.3084   -1.9008    0.0000 O   0  0  0  0  0  0  0  0  0  0  0  0
   -4.4298   -3.1166    0.0000 C   0  0  0  0  0  0  0  0  0  0  0  0
  1  2  1  0
  2  3  1  0
  3  4  2  0
  4  5  1  0
  5  6  2  0
  6  7  1  0
  7  8  1  0
  8  9  1  0
 10  9  1  1
 10 11  1  0
 11 12  1  0
 12 13  1  0
 13 14  1  0
 14 15  1  0
 15 16  1  1
 16 17  1  0
 17 18  1  0
 18 19  1  0
 19 20  1  1
 19 21  1  0
  6 22  1  0
 22 23  2  0
 23 24  1  0
 24 25  1  0
 23  3  1  0
 15 10  1  0
 21 16  1  0
M  END
> <Identifier>
VERNAKALANT HYDROCHLORIDE

> <hERG>
1

$$$$

     RDKit          2D

 37 39  0  0  0  0  0  0  0  0999 V2000
    2.7807   -5.4669    0.0000 C   0  0  0  0  0  0  0  0  0  0  0  0
    2.5220   -3.9894    0.0000 C   0  0  0  0  0  0  0  0  0  0  0  0
    1.1131   -3.4747    0.0000 C   0  0  0  0  0  0  0  0  0  0  0  0
    3.6722   -3.0266    0.0000 O   0  0  0  0  0  0  0  0  0  0  0  0
    3.4135   -1.5491    0.0000 C   0  0  0  0  0  0  0  0  0  0  0  0
    2.0046   -1.0343    0.0000 C   0  0  0  0  0  0  0  0  0  0  0  0
    1.7459    0.4432    0.0000 C   0  0  0  0  0  0  0  0  0  0  0  0
    0.3370    0.9579    0.0000 C   0  0  0  0  0  0  0  0  0  0  0  0
   -0.8132   -0.0049    0.0000 C   0  0  0  0  0  0  0  0  0  0  0  0
   -0.7104   -1.5014    0.0000 C   0  0  0  0  0  0  0  0  0  0  0  0
   -2.1018   -2.0616    0.0000 N   0  0  0  0  0  0  0  0  0  0  0  0
   -3.0646   -0.9114    0.0000 C   0  0  0  0  0  0  0  0  0  0  0  0
   -4.5611   -1.0142    0.0000 C   0  0  0  0  0  0  0  0  0  0  0  0
   -6.0576   -1.1170    0.0000 O   0  0  0  0  0  0  0  0  0  0  0  0
   -4.4583   -2.5107    0.0000 C   0  0  0  0  0  0  0  0  0  0  0  0
   -4.3554   -4.0071    0.0000 F   0  0  0  0  0  0  0  0  0  0  0  0
   -5.9547   -2.6135    0.0000 F   0  0  0  0  0  0  0  0  0  0  0  0
   -2.9618   -2.4078    0.0000 F   0  0  0  0  0  0  0  0  0  0  0  0
   -4.6639    0.4823    0.0000 C   0  0  0  0  0  0  0  0  0  0  0  0
   -4.7668    1.9787    0.0000 F   0  0  0  0  0  0  0  0  0  0  0  0
   -6.1604    0.3794    0.0000 F   0  0  0  0  0  0  0  0  0  0  0  0
   -3.1675    0.5851    0.0000 F   0  0  0  0  0  0  0  0  0  0  0  0
   -2.2682    0.3598    0.0000 S   0  0  0  0  0  0  0  0  0  0  0  0
    0.0783    2.4354    0.0000 C   0  0  0  0  0  0  0  0  0  0  0  0
    1.2285    3.3982    0.0000 C   0  0  0  0  0  0  0  0  0  0  0  0
    0.9698    4.8758    0.0000 C   0  0  0  0  0  0  0  0  0  0  0  0
   -0.4391    5.3905    0.0000 N   0  0  0  0  0  4  0  0  0  0  0  0
   -0.6978    6.8680    0.0000 O   0  0  0  0  0  1  0  0  0  0  0  0
   -1.5893    4.4277    0.0000 C   0  0  0  0  0  0  0  0  0  0  0  0
   -1.3306    2.9502    0.0000 C   0  0  0  0  0  0  0  0  0  0  0  0
    2.8962    1.4060    0.0000 C   0  0  0  0  0  0  0  0  0  0  0  0
    4.3051    0.8913    0.0000 C   0  0  0  0  0  0  0  0  0  0  0  0
    4.5638   -0.5863    0.0000 C   0  0  0  0  0  0  0  0  0  0  0  0
    5.9727   -1.1010    0.0000 O   0  0  0  0  0  0  0  0  0  0  0  0
    7.1229   -0.1382    0.0000 C   0  0  0  0  0  0  0  0  0  0  0  0
    8.5318   -0.6529    0.0000 F   0  0  0  0  0  0  0  0  0  0  0  0
    6.8642    1.3393    0.0000 F   0  0  0  0  0  0  0  0  0  0  0  0
  1  2  1  0
  2  3  1  0
  2  4  1  0
  4  5  1  0
  5  6  2  0
  6  7  1  0
  8  7  1  6
  8  9  1  0
  9 10  2  0
 10 11  1  0
 11 12  1  0
 12 13  1  1
 13 14  1  0
 13 15  1  0
 15 16  1  0
 15 17  1  0
 15 18  1  0
 13 19  1  0
 19 20  1  0
 19 21  1  0
 19 22  1  0
 12 23  1  0
  8 24  1  0
 24 25  2  0
 25 26  1  0
 26 27  2  0
 27 28  1  0
 27 29  1  0
 29 30  2  0
  7 31  2  0
 31 32  1  0
 32 33  2  0
 33 34  1  0
 34 35  1  0
 35 36  1  0
 35 37  1  0
 33  5  1  0
 23  9  1  0
 30 24  1  0
M  CHG  2  27   1  28  -1
M  END
> <Identifier>
WOMBAT14

> <hERG>
1

$$$$

     RDKit          2D

 32 35  0  0  0  0  0  0  0  0999 V2000
    5.6669   -2.6063    0.0000 C   0  0  0  0  0  0  0  0  0  0  0  0
    5.1579   -1.1953    0.0000 O   0  0  0  0  0  0  0  0  0  0  0  0
    6.1254   -0.0490    0.0000 C   0  0  0  0  0  0  0  0  0  0  0  0
    7.6018   -0.3137    0.0000 N   0  0  0  0  0  0  0  0  0  0  0  0
    8.5693    0.8326    0.0000 C   0  0  0  0  0  0  0  0  0  0  0  0
    8.0603    2.2436    0.0000 C   0  0  0  0  0  0  0  0  0  0  0  0
    6.5838    2.5083    0.0000 C   0  0  0  0  0  0  0  0  0  0  0  0
    5.6164    1.3620    0.0000 C   0  0  0  0  0  0  0  0  0  0  0  0
    4.1399    1.6267    0.0000 C   0  0  0  0  0  0  0  0  0  0  0  0
    3.6309    3.0377    0.0000 O   0  0  0  0  0  0  0  0  0  0  0  0
    3.1724    0.4804    0.0000 N   0  0  0  0  0  0  0  0  0  0  0  0
    3.5312   -0.9761    0.0000 C   0  0  0  0  0  0  0  0  0  0  0  0
    2.2568   -1.7674    0.0000 C   0  0  0  0  0  0  0  0  0  0  0  0
    1.1105   -0.7999    0.0000 C   0  0  0  0  0  0  0  0  0  0  0  0
   -0.3459   -1.1586    0.0000 N   0  0  0  0  0  4  0  0  0  0  0  0
   -0.7635   -2.5993    0.0000 C   0  0  0  0  0  0  0  0  0  0  0  0
   -2.2200   -2.9581    0.0000 C   0  0  0  0  0  0  0  0  0  0  0  0
   -2.7859   -4.3472    0.0000 C   0  0  0  0  0  0  0  0  0  0  0  0
   -4.2819   -4.2383    0.0000 N   0  0  0  0  0  0  0  0  0  0  0  0
   -4.6406   -2.7819    0.0000 C   0  0  0  0  0  0  0  0  0  0  0  0
   -3.3663   -1.9906    0.0000 N   0  0  0  0  0  0  0  0  0  0  0  0
   -3.2574   -0.4946    0.0000 C   0  0  0  0  0  0  0  0  0  0  0  0
   -4.4986    0.3478    0.0000 C   0  0  0  0  0  0  0  0  0  0  0  0
   -4.3897    1.8438    0.0000 C   0  0  0  0  0  0  0  0  0  0  0  0
   -5.6308    2.6861    0.0000 C   0  0  0  0  0  0  0  0  0  0  0  0
   -6.9809    2.0324    0.0000 C   0  0  0  0  0  0  0  0  0  0  0  0
   -8.2220    2.8748    0.0000 C   0  0  0  0  0  0  0  0  0  0  0  0
   -9.4632    3.7171    0.0000 N   0  0  0  0  0  0  0  0  0  0  0  0
   -7.0898    0.5364    0.0000 C   0  0  0  0  0  0  0  0  0  0  0  0
   -5.8486   -0.3060    0.0000 C   0  0  0  0  0  0  0  0  0  0  0  0
    1.6764    0.5893    0.0000 C   0  0  0  0  0  0  0  0  0  0  0  0
    0.8852    1.8636    0.0000 O   0  0  0  0  0  0  0  0  0  0  0  0
  1  2  1  0
  2  3  1  0
  3  4  2  0
  4  5  1  0
  5  6  2  0
  6  7  1  0
  7  8  2  0
  8  9  1  0
  9 10  2  0
  9 11  1  0
 11 12  1  0
 12 13  1  0
 13 14  1  0
 14 15  1  6
 15 16  1  0
 16 17  1  0
 17 18  2  0
 18 19  1  0
 19 20  2  0
 20 21  1  0
 21 22  1  0
 22 23  1  0
 23 24  2  0
 24 25  1  0
 25 26  2  0
 26 27  1  0
 27 28  3  0
 26 29  1  0
 29 30  2  0
 14 31  1  0
 31 32  2  0
  8  3  1  0
 31 11  1  0
 21 17  1  0
 30 23  1  0
M  CHG  1  15   1
M  END
> <Identifier>
WOMBAT22

> <hERG>
1

$$$$

     RDKit          2D

 29 32  0  0  0  0  0  0  0  0999 V2000
    1.1432   -2.6478    0.0000 O   0  0  0  0  0  0  0  0  0  0  0  0
    1.6204   -1.2258    0.0000 C   0  0  0  0  0  0  0  0  0  0  0  0
    0.6274   -0.1014    0.0000 N   0  0  0  0  0  0  0  0  0  0  0  0
   -0.8427   -0.3992    0.0000 C   0  0  0  0  0  0  0  0  0  0  0  0
   -1.8356    0.7251    0.0000 C   0  0  0  0  0  0  0  0  0  0  0  0
   -3.3058    0.4274    0.0000 C   0  0  0  0  0  0  0  0  0  0  0  0
   -3.7830   -0.9947    0.0000 N   0  0  0  0  0  0  0  0  0  0  0  0
   -5.2532   -1.2924    0.0000 C   0  0  0  0  0  0  0  0  0  0  0  0
   -6.2461   -0.1681    0.0000 C   0  0  0  0  0  0  0  0  0  0  0  0
   -5.7689    1.2540    0.0000 C   0  0  0  0  0  0  0  0  0  0  0  0
   -6.7618    2.3783    0.0000 C   0  0  0  0  0  0  0  0  0  0  0  0
   -8.2319    2.0805    0.0000 C   0  0  0  0  0  0  0  0  0  0  0  0
   -8.7092    0.6585    0.0000 C   0  0  0  0  0  0  0  0  0  0  0  0
  -10.1793    0.3607    0.0000 F   0  0  0  0  0  0  0  0  0  0  0  0
   -7.7162   -0.4658    0.0000 C   0  0  0  0  0  0  0  0  0  0  0  0
   -2.7901   -2.1190    0.0000 C   0  0  0  0  0  0  0  0  0  0  0  0
   -1.3199   -1.8212    0.0000 C   0  0  0  0  0  0  0  0  0  0  0  0
    3.0905   -0.9280    0.0000 C   0  0  0  0  0  0  0  0  0  0  0  0
    4.0835   -2.0523    0.0000 C   0  0  0  0  0  0  0  0  0  0  0  0
    5.5536   -1.7546    0.0000 C   0  0  0  0  0  0  0  0  0  0  0  0
    6.5465   -2.8789    0.0000 O   0  0  0  0  0  0  0  0  0  0  0  0
    6.0308   -0.3325    0.0000 C   0  0  0  0  0  0  0  0  0  0  0  0
    7.5010   -0.0348    0.0000 C   0  0  0  0  0  0  0  0  0  0  0  0
    7.9782    1.3873    0.0000 C   0  0  0  0  0  0  0  0  0  0  0  0
    6.9853    2.5116    0.0000 C   0  0  0  0  0  0  0  0  0  0  0  0
    7.4625    3.9336    0.0000 F   0  0  0  0  0  0  0  0  0  0  0  0
    5.5151    2.2138    0.0000 C   0  0  0  0  0  0  0  0  0  0  0  0
    5.0379    0.7918    0.0000 C   0  0  0  0  0  0  0  0  0  0  0  0
    3.5678    0.4940    0.0000 O   0  0  0  0  0  0  0  0  0  0  0  0
  1  2  2  0
  2  3  1  0
  3  4  1  0
  4  5  1  0
  5  6  1  0
  6  7  1  0
  7  8  1  0
  8  9  1  0
  9 10  2  0
 10 11  1  0
 11 12  2  0
 12 13  1  0
 13 14  1  0
 13 15  2  0
  7 16  1  0
 16 17  1  0
  2 18  1  0
 18 19  2  0
 19 20  1  0
 20 21  2  0
 20 22  1  0
 22 23  2  0
 23 24  1  0
 24 25  2  0
 25 26  1  0
 25 27  1  0
 27 28  2  0
 28 29  1  0
 17  4  1  0
 29 18  1  0
 15  9  1  0
 28 22  1  0
M  END
> <Identifier>
JMC20066569-49

> <hERG>
1

$$$$

     RDKit          2D

 19 20  0  0  0  0  0  0  0  0999 V2000
    0.4455    4.5077    0.0000 C   0  0  0  0  0  0  0  0  0  0  0  0
   -0.3191    3.2172    0.0000 O   0  0  0  0  0  0  0  0  0  0  0  0
    0.4162    1.9098    0.0000 C   0  0  0  0  0  0  0  0  0  0  0  0
   -0.3483    0.6193    0.0000 C   0  0  0  0  0  0  0  0  0  0  0  0
    0.3870   -0.6881    0.0000 C   0  0  0  0  0  0  0  0  0  0  0  0
   -0.3775   -1.9786    0.0000 N   0  0  0  0  0  0  0  0  0  0  0  0
   -1.8774   -1.9618    0.0000 C   0  0  0  0  0  0  0  0  0  0  0  0
   -2.6420   -3.2523    0.0000 C   0  0  0  0  0  0  0  0  0  0  0  0
   -2.6128   -0.6544    0.0000 C   0  0  0  0  0  0  0  0  0  0  0  0
   -4.1127   -0.6375    0.0000 C   0  0  0  0  0  0  0  0  0  0  0  0
   -4.8480    0.6699    0.0000 C   0  0  0  0  0  0  0  0  0  0  0  0
   -6.3479    0.6868    0.0000 N   0  0  0  0  0  0  0  0  0  0  0  0
    1.8869   -0.7050    0.0000 C   0  0  0  0  0  0  0  0  0  0  0  0
    2.6223   -2.0124    0.0000 N   0  0  0  0  0  0  0  0  0  0  0  0
    4.1222   -2.0292    0.0000 C   0  0  0  0  0  0  0  0  0  0  0  0
    4.8867   -0.7387    0.0000 C   0  0  0  0  0  0  0  0  0  0  0  0
    4.1514    0.5687    0.0000 C   0  0  0  0  0  0  0  0  0  0  0  0
    2.6515    0.5856    0.0000 C   0  0  0  0  0  0  0  0  0  0  0  0
    1.9161    1.8929    0.0000 C   0  0  0  0  0  0  0  0  0  0  0  0
  1  2  1  0
  2  3  1  0
  3  4  2  0
  4  5  1  0
  5  6  1  0
  6  7  1  0
  7  8  1  6
  7  9  1  0
  9 10  1  0
 10 11  1  0
 11 12  1  0
  5 13  2  0
 13 14  1  0
 14 15  2  0
 15 16  1  0
 16 17  2  0
 17 18  1  0
 18 19  2  0
 19  3  1  0
 18 13  1  0
M  END
> <Identifier>
PRIMAQUINE

> <hERG>
1

$$$$

     RDKit          2D

 33 36  0  0  0  0  0  0  0  0999 V2000
    6.1919   -0.3397    0.0000 C   0  0  0  0  0  0  0  0  0  0  0  0
    5.4517   -1.6444    0.0000 C   0  0  0  0  0  0  0  0  0  0  0  0
    4.7116   -2.9491    0.0000 C   0  0  0  0  0  0  0  0  0  0  0  0
    6.7564   -2.3845    0.0000 O   0  0  0  0  0  0  0  0  0  0  0  0
    4.1470   -0.9043    0.0000 C   0  0  0  0  0  0  0  0  0  0  0  0
    2.8537   -1.6641    0.0000 C   0  0  0  0  0  0  0  0  0  0  0  0
    1.5490   -0.9240    0.0000 C   0  0  0  0  0  0  0  0  0  0  0  0
    1.5377    0.5760    0.0000 C   0  0  0  0  0  0  0  0  0  0  0  0
    0.2330    1.3161    0.0000 C   0  0  0  0  0  0  0  0  0  0  0  0
    0.2216    2.8160    0.0000 C   0  0  0  0  0  0  0  0  0  0  0  0
    1.5149    3.5759    0.0000 C   0  0  0  0  0  0  0  0  0  0  0  0
    1.5035    5.0758    0.0000 C   0  0  0  0  0  0  0  0  0  0  0  0
    0.1988    5.8160    0.0000 N   0  0  0  0  0  4  0  0  0  0  0  0
    0.1874    7.3159    0.0000 O   0  0  0  0  0  0  0  0  0  0  0  0
   -1.0945    5.0561    0.0000 C   0  0  0  0  0  0  0  0  0  0  0  0
   -1.0831    3.5562    0.0000 C   0  0  0  0  0  0  0  0  0  0  0  0
   -1.0603    0.5563    0.0000 C   0  0  0  0  0  0  0  0  0  0  0  0
   -2.3650    1.2964    0.0000 C   0  0  0  0  0  0  0  0  0  0  0  0
   -3.6583    0.5365    0.0000 C   0  0  0  0  0  0  0  0  0  0  0  0
   -3.6470   -0.9634    0.0000 C   0  0  0  0  0  0  0  0  0  0  0  0
   -4.9403   -1.7232    0.0000 O   0  0  0  0  0  0  0  0  0  0  0  0
   -6.2450   -0.9831    0.0000 C   0  0  0  0  0  0  0  0  0  0  0  0
   -7.5383   -1.7430    0.0000 F   0  0  0  0  0  0  0  0  0  0  0  0
   -6.2563    0.5168    0.0000 F   0  0  0  0  0  0  0  0  0  0  0  0
   -2.3423   -1.7035    0.0000 C   0  0  0  0  0  0  0  0  0  0  0  0
   -2.3309   -3.2035    0.0000 O   0  0  0  0  0  0  0  0  0  0  0  0
   -1.0262   -3.9436    0.0000 C   0  0  0  0  0  0  0  0  0  0  0  0
   -0.6270   -5.3895    0.0000 C   0  0  0  0  0  0  0  0  0  0  0  0
    0.8189   -4.9903    0.0000 C   0  0  0  0  0  0  0  0  0  0  0  0
    0.4197   -3.5444    0.0000 C   0  0  0  0  0  0  0  0  0  0  0  0
   -1.0490   -0.9437    0.0000 C   0  0  0  0  0  0  0  0  0  0  0  0
    2.8310    1.3358    0.0000 C   0  0  0  0  0  0  0  0  0  0  0  0
    4.1357    0.5957    0.0000 N   0  0  0  0  0  0  0  0  0  0  0  0
  1  2  1  0
  2  3  1  0
  2  4  1  0
  5  2  1  1
  5  6  1  0
  6  7  2  0
  7  8  1  0
  9  8  1  1
  9 10  1  0
 10 11  2  0
 11 12  1  0
 12 13  2  0
 13 14  1  0
 13 15  1  0
 15 16  2  0
  9 17  1  0
 17 18  2  0
 18 19  1  0
 19 20  2  0
 20 21  1  0
 21 22  1  0
 22 23  1  0
 22 24  1  0
 20 25  1  0
 25 26  1  0
 26 27  1  0
 27 28  1  0
 28 29  1  0
 29 30  1  0
 25 31  2  0
  8 32  2  0
 32 33  1  0
 33  5  1  0
 16 10  1  0
 31 17  1  0
 30 27  1  0
M  CHG  1  13   1
M  END
> <Identifier>
WOMBAT43

> <hERG>
1

$$$$

     RDKit          2D

 25 28  0  0  0  0  0  0  0  0999 V2000
   -7.6166    0.2199    0.0000 C   0  0  0  0  0  0  0  0  0  0  0  0
   -6.2140   -0.3118    0.0000 N   0  0  0  0  0  4  0  0  0  0  0  0
   -5.0522    0.6371    0.0000 C   0  0  0  0  0  0  0  0  0  0  0  0
   -3.6496    0.1054    0.0000 C   0  0  0  0  0  0  0  0  0  0  0  0
   -3.4088   -1.3752    0.0000 N   0  0  0  0  0  4  0  0  0  0  0  0
   -2.0062   -1.9069    0.0000 C   0  0  0  0  0  0  0  0  0  0  0  0
   -0.8444   -0.9580    0.0000 C   0  0  0  0  0  0  0  0  0  0  0  0
    0.5582   -1.4897    0.0000 C   0  0  0  0  0  0  0  0  0  0  0  0
    1.7200   -0.5409    0.0000 N   0  0  0  0  0  0  0  0  0  0  0  0
    3.1226   -1.0725    0.0000 C   0  0  0  0  0  0  0  0  0  0  0  0
    3.3634   -2.5531    0.0000 C   0  0  0  0  0  0  0  0  0  0  0  0
    4.7660   -3.0848    0.0000 C   0  0  0  0  0  0  0  0  0  0  0  0
    5.9278   -2.1359    0.0000 C   0  0  0  0  0  0  0  0  0  0  0  0
    5.6869   -0.6554    0.0000 C   0  0  0  0  0  0  0  0  0  0  0  0
    4.2843   -0.1237    0.0000 C   0  0  0  0  0  0  0  0  0  0  0  0
    4.0435    1.3568    0.0000 S   0  0  0  0  0  0  0  0  0  0  0  0
    2.6409    1.8885    0.0000 C   0  0  0  0  0  0  0  0  0  0  0  0
    2.4000    3.3691    0.0000 C   0  0  0  0  0  0  0  0  0  0  0  0
    0.9974    3.9008    0.0000 C   0  0  0  0  0  0  0  0  0  0  0  0
   -0.1643    2.9519    0.0000 C   0  0  0  0  0  0  0  0  0  0  0  0
   -1.5669    3.4836    0.0000 Cl  0  0  0  0  0  0  0  0  0  0  0  0
    0.0765    1.4714    0.0000 C   0  0  0  0  0  0  0  0  0  0  0  0
    1.4791    0.9397    0.0000 C   0  0  0  0  0  0  0  0  0  0  0  0
   -4.5705   -2.3240    0.0000 C   0  0  0  0  0  0  0  0  0  0  0  0
   -5.9731   -1.7923    0.0000 C   0  0  0  0  0  0  0  0  0  0  0  0
  1  2  1  0
  2  3  1  0
  3  4  1  0
  4  5  1  0
  5  6  1  0
  6  7  1  0
  7  8  1  0
  8  9  1  0
  9 10  1  0
 10 11  2  0
 11 12  1  0
 12 13  2  0
 13 14  1  0
 14 15  2  0
 15 16  1  0
 16 17  1  0
 17 18  2  0
 18 19  1  0
 19 20  2  0
 20 21  1  0
 20 22  1  0
 22 23  2  0
  5 24  1  0
 24 25  1  0
 25  2  1  0
 23  9  1  0
 15 10  1  0
 23 17  1  0
M  CHG  2   2   1   5   1
M  END
> <Identifier>
PROCHLORPERAZINE

> <hERG>
1

$$$$

     RDKit          2D

 32 34  0  0  0  0  0  0  0  0999 V2000
    6.1971   -0.8476    0.0000 C   0  0  0  0  0  0  0  0  0  0  0  0
    5.3863   -2.1096    0.0000 C   0  0  0  0  0  0  0  0  0  0  0  0
    4.5754   -3.3716    0.0000 C   0  0  0  0  0  0  0  0  0  0  0  0
    6.6482   -2.9204    0.0000 O   0  0  0  0  0  0  0  0  0  0  0  0
    4.1243   -1.2988    0.0000 C   0  0  0  0  0  0  0  0  0  0  0  0
    2.7911   -1.9863    0.0000 C   0  0  0  0  0  0  0  0  0  0  0  0
    1.5291   -1.1755    0.0000 C   0  0  0  0  0  0  0  0  0  0  0  0
    1.6003    0.3228    0.0000 C   0  0  0  0  0  0  0  0  0  0  0  0
    0.3384    1.1337    0.0000 C   0  0  0  0  0  0  0  0  0  0  0  0
    0.4096    2.6320    0.0000 C   0  0  0  0  0  0  0  0  0  0  0  0
    1.7427    3.3195    0.0000 C   0  0  0  0  0  0  0  0  0  0  0  0
    1.8139    4.8178    0.0000 C   0  0  0  0  0  0  0  0  0  0  0  0
    0.5519    5.6286    0.0000 N   0  0  0  0  0  4  0  0  0  0  0  0
    0.6231    7.1269    0.0000 O   0  0  0  0  0  1  0  0  0  0  0  0
   -0.7812    4.9411    0.0000 C   0  0  0  0  0  0  0  0  0  0  0  0
   -0.8524    3.4428    0.0000 C   0  0  0  0  0  0  0  0  0  0  0  0
   -0.9948    0.4462    0.0000 C   0  0  0  0  0  0  0  0  0  0  0  0
   -2.2568    1.2570    0.0000 C   0  0  0  0  0  0  0  0  0  0  0  0
   -3.5900    0.5695    0.0000 C   0  0  0  0  0  0  0  0  0  0  0  0
   -3.6612   -0.9288    0.0000 C   0  0  0  0  0  0  0  0  0  0  0  0
   -4.9943   -1.6163    0.0000 O   0  0  0  0  0  0  0  0  0  0  0  0
   -6.2563   -0.8055    0.0000 C   0  0  0  0  0  0  0  0  0  0  0  0
   -7.5895   -1.4930    0.0000 F   0  0  0  0  0  0  0  0  0  0  0  0
   -6.1851    0.6928    0.0000 F   0  0  0  0  0  0  0  0  0  0  0  0
   -2.3992   -1.7396    0.0000 C   0  0  0  0  0  0  0  0  0  0  0  0
   -2.4704   -3.2380    0.0000 O   0  0  0  0  0  0  0  0  0  0  0  0
   -1.2084   -4.0488    0.0000 C   0  0  0  0  0  0  0  0  0  0  0  0
   -1.2796   -5.5471    0.0000 F   0  0  0  0  0  0  0  0  0  0  0  0
    0.1248   -3.3613    0.0000 F   0  0  0  0  0  0  0  0  0  0  0  0
   -1.0660   -1.0522    0.0000 C   0  0  0  0  0  0  0  0  0  0  0  0
    2.9335    1.0103    0.0000 C   0  0  0  0  0  0  0  0  0  0  0  0
    4.1955    0.1995    0.0000 N   0  0  0  0  0  0  0  0  0  0  0  0
  1  2  1  0
  2  3  1  0
  2  4  1  0
  5  2  1  1
  5  6  1  0
  6  7  2  0
  7  8  1  0
  9  8  1  1
  9 10  1  0
 10 11  2  0
 11 12  1  0
 12 13  2  0
 13 14  1  0
 13 15  1  0
 15 16  2  0
  9 17  1  0
 17 18  2  0
 18 19  1  0
 19 20  2  0
 20 21  1  0
 21 22  1  0
 22 23  1  0
 22 24  1  0
 20 25  1  0
 25 26  1  0
 26 27  1  0
 27 28  1  0
 27 29  1  0
 25 30  2  0
  8 31  2  0
 31 32  1  0
 32  5  1  0
 16 10  1  0
 30 17  1  0
M  CHG  2  13   1  14  -1
M  END
> <Identifier>
WOMBAT44

> <hERG>
1

$$$$

     RDKit          2D

 20 23  0  0  0  0  0  0  0  0999 V2000
    0.4665   -3.6453    0.0000 C   0  0  0  0  0  0  0  0  0  0  0  0
   -0.9513   -3.1558    0.0000 C   0  0  0  0  0  0  0  0  0  0  0  0
   -1.2364   -1.6831    0.0000 C   0  0  0  0  0  0  0  0  0  0  0  0
   -0.1035   -0.7000    0.0000 C   0  0  0  0  0  0  0  0  0  0  0  0
   -0.3885    0.7727    0.0000 C   0  0  0  0  0  0  0  0  0  0  0  0
   -1.8883    0.7477    0.0000 C   0  0  0  0  0  0  0  0  0  0  0  0
   -2.6598    2.0341    0.0000 C   0  0  0  0  0  0  0  0  0  0  0  0
   -4.1596    2.0092    0.0000 C   0  0  0  0  0  0  0  0  0  0  0  0
   -4.8879    0.6978    0.0000 C   0  0  0  0  0  0  0  0  0  0  0  0
   -4.1164   -0.5886    0.0000 C   0  0  0  0  0  0  0  0  0  0  0  0
   -2.6166   -0.5636    0.0000 C   0  0  0  0  0  0  0  0  0  0  0  0
   -0.1527    2.2541    0.0000 C   0  0  0  0  0  0  0  0  0  0  0  0
    1.0123    1.3091    0.0000 C   0  0  0  0  0  0  0  0  0  0  0  0
    2.4936    1.0733    0.0000 C   0  0  0  0  0  0  0  0  0  0  0  0
    3.5551    2.1331    0.0000 N   0  0  0  0  0  4  0  0  0  0  0  0
    4.8911    1.4510    0.0000 C   0  0  0  0  0  0  0  0  0  0  0  0
    4.6552   -0.0303    0.0000 C   0  0  0  0  0  0  0  0  0  0  0  0
    3.1735   -0.2638    0.0000 N   0  0  0  0  0  0  0  0  0  0  0  0
    1.3144   -1.1895    0.0000 C   0  0  0  0  0  0  0  0  0  0  0  0
    1.5994   -2.6621    0.0000 C   0  0  0  0  0  0  0  0  0  0  0  0
  1  2  2  0
  2  3  1  0
  3  4  2  0
  4  5  1  0
  5  6  1  0
  6  7  2  0
  7  8  1  0
  8  9  2  0
  9 10  1  0
 10 11  2  0
  5 12  1  0
 12 13  1  0
 13 14  1  1
 14 15  2  0
 15 16  1  0
 16 17  1  0
 17 18  1  0
  4 19  1  0
 19 20  2  0
 20  1  1  0
 13  5  1  0
 18 14  1  0
 11  6  1  0
M  CHG  1  15   1
M  END
> <Identifier>
CIBENZOLINE

> <hERG>
1

$$$$

     RDKit          2D

 29 33  0  0  0  0  0  0  0  0999 V2000
    1.3163   -5.5015    0.0000 C   0  0  0  0  0  0  0  0  0  0  0  0
    1.7893   -4.0780    0.0000 C   0  0  0  0  0  0  0  0  0  0  0  0
    3.2586   -3.7759    0.0000 O   0  0  0  0  0  0  0  0  0  0  0  0
    0.7931   -2.9566    0.0000 S   0  0  0  0  0  0  0  0  0  0  0  0
    1.2661   -1.5331    0.0000 C   0  0  0  0  0  0  0  0  0  0  0  0
    2.7353   -1.2310    0.0000 C   0  0  0  0  0  0  0  0  0  0  0  0
    3.2083    0.1924    0.0000 C   0  0  0  0  0  0  0  0  0  0  0  0
    4.6776    0.4945    0.0000 C   0  0  0  0  0  0  0  0  0  0  0  0
    5.1506    1.9180    0.0000 C   0  0  0  0  0  0  0  0  0  0  0  0
    6.6199    2.2201    0.0000 O   0  0  0  0  0  0  0  0  0  0  0  0
    4.1544    3.0394    0.0000 C   0  0  0  0  0  0  0  0  0  0  0  0
    2.6851    2.7373    0.0000 C   0  0  0  0  0  0  0  0  0  0  0  0
    2.2121    1.3138    0.0000 C   0  0  0  0  0  0  0  0  0  0  0  0
    1.2158    2.4352    0.0000 C   0  0  0  0  0  0  0  0  0  0  0  0
    0.7428    1.0117    0.0000 C   0  0  0  0  0  0  0  0  0  0  0  0
   -0.2534    2.1331    0.0000 C   0  0  0  0  0  0  0  0  0  0  0  0
   -1.7227    1.8310    0.0000 C   0  0  0  0  0  0  0  0  0  0  0  0
   -2.1957    0.4075    0.0000 C   0  0  0  0  0  0  0  0  0  0  0  0
   -2.2057   -1.0925    0.0000 C   0  0  0  0  0  0  0  0  0  0  0  0
   -1.1994   -0.7139    0.0000 C   0  0  0  0  0  0  0  0  0  0  0  0
   -1.9581   -2.0079    0.0000 C   0  0  0  0  0  0  0  0  0  0  0  0
   -3.4232   -1.6863    0.0000 C   0  0  0  0  0  0  0  0  0  0  0  0
   -3.5700   -0.1935    0.0000 C   0  0  0  0  0  0  0  0  0  0  0  0
   -4.9444   -0.7944    0.0000 C   0  0  0  0  0  0  0  0  0  0  0  0
   -5.9407    0.3269    0.0000 C   0  0  0  0  0  0  0  0  0  0  0  0
   -5.1820    1.6209    0.0000 C   0  0  0  0  0  0  0  0  0  0  0  0
   -5.7830    2.9953    0.0000 O   0  0  0  0  0  0  0  0  0  0  0  0
   -3.7169    1.2993    0.0000 O   0  0  0  0  0  0  0  0  0  0  0  0
    0.2698   -0.4118    0.0000 C   0  0  0  0  0  0  0  0  0  0  0  0
  1  2  1  0
  2  3  2  0
  2  4  1  0
  5  4  1  1
  5  6  1  0
  6  7  1  0
  7  8  2  0
  8  9  1  0
  9 10  2  0
  9 11  1  0
 11 12  1  0
 12 13  1  0
 13 14  1  6
 13 15  1  0
 15 16  1  6
 16 17  1  0
 17 18  1  0
 18 19  1  6
 18 20  1  0
 20 21  1  6
 21 22  1  0
 23 22  1  6
 23 24  1  0
 24 25  1  0
 25 26  1  0
 26 27  2  0
 26 28  1  0
 20 29  1  0
 29  5  1  1
 13  7  1  0
 29 15  1  0
 23 18  1  0
 28 23  1  0
M  END
> <Identifier>
SPIRONOLACTONE

> <hERG>
1

$$$$

     RDKit          2D

 30 34  0  0  0  0  0  0  0  0999 V2000
   -8.1299    2.0203    0.0000 O   0  0  0  0  0  0  0  0  0  0  0  0
   -8.2571    0.5257    0.0000 C   0  0  0  0  0  0  0  0  0  0  0  0
   -9.5410   -0.2499    0.0000 N   0  0  0  0  0  0  0  0  0  0  0  0
   -9.2001   -1.7106    0.0000 C   0  0  0  0  0  0  0  0  0  0  0  0
   -7.7055   -1.8378    0.0000 C   0  0  0  0  0  0  0  0  0  0  0  0
   -7.1227   -0.4556    0.0000 N   0  0  0  0  0  0  0  0  0  0  0  0
   -5.6619   -0.1147    0.0000 C   0  0  0  0  0  0  0  0  0  0  0  0
   -4.6363   -1.2093    0.0000 C   0  0  0  0  0  0  0  0  0  0  0  0
   -3.1756   -0.8684    0.0000 N   0  0  0  0  0  4  0  0  0  0  0  0
   -2.1499   -1.9629    0.0000 C   0  0  0  0  0  0  0  0  0  0  0  0
   -0.6892   -1.6220    0.0000 C   0  0  0  0  0  0  0  0  0  0  0  0
   -0.2541   -0.1865    0.0000 C   0  0  0  0  0  0  0  0  0  0  0  0
    1.2067    0.1544    0.0000 C   0  0  0  0  0  0  0  0  0  0  0  0
    2.3411   -0.8270    0.0000 C   0  0  0  0  0  0  0  0  0  0  0  0
    3.6250   -0.0513    0.0000 N   0  0  0  0  0  0  0  0  0  0  0  0
    5.0071   -0.6341    0.0000 C   0  0  0  0  0  0  0  0  0  0  0  0
    5.1935   -2.1225    0.0000 C   0  0  0  0  0  0  0  0  0  0  0  0
    6.5757   -2.7053    0.0000 C   0  0  0  0  0  0  0  0  0  0  0  0
    7.7715   -1.7997    0.0000 C   0  0  0  0  0  0  0  0  0  0  0  0
    9.1536   -2.3825    0.0000 F   0  0  0  0  0  0  0  0  0  0  0  0
    7.5851   -0.3113    0.0000 C   0  0  0  0  0  0  0  0  0  0  0  0
    6.2029    0.2715    0.0000 C   0  0  0  0  0  0  0  0  0  0  0  0
    3.2841    1.4094    0.0000 C   0  0  0  0  0  0  0  0  0  0  0  0
    4.1415    2.6402    0.0000 C   0  0  0  0  0  0  0  0  0  0  0  0
    3.5043    3.9981    0.0000 C   0  0  0  0  0  0  0  0  0  0  0  0
    2.0097    4.1253    0.0000 C   0  0  0  0  0  0  0  0  0  0  0  0
    1.1523    2.8945    0.0000 C   0  0  0  0  0  0  0  0  0  0  0  0
    1.7895    1.5366    0.0000 C   0  0  0  0  0  0  0  0  0  0  0  0
   -1.2797    0.9081    0.0000 C   0  0  0  0  0  0  0  0  0  0  0  0
   -2.7404    0.5671    0.0000 C   0  0  0  0  0  0  0  0  0  0  0  0
  1  2  2  0
  2  3  1  0
  3  4  1  0
  4  5  1  0
  5  6  1  0
  6  7  1  0
  7  8  1  0
  8  9  1  0
  9 10  1  0
 10 11  1  0
 11 12  1  0
 12 13  1  0
 13 14  2  0
 14 15  1  0
 15 16  1  0
 16 17  2  0
 17 18  1  0
 18 19  2  0
 19 20  1  0
 19 21  1  0
 21 22  2  0
 15 23  1  0
 23 24  2  0
 24 25  1  0
 25 26  2  0
 26 27  1  0
 27 28  2  0
 12 29  1  0
 29 30  1  0
  6  2  1  0
 30  9  1  0
 28 13  1  0
 22 16  1  0
 28 23  1  0
M  CHG  1   9   1
M  END
> <Identifier>
SERTINDOLE13

> <hERG>
1

$$$$

     RDKit          2D

 20 21  0  0  0  0  0  0  0  0999 V2000
   -1.4093   -4.2267    0.0000 C   0  0  0  0  0  0  0  0  0  0  0  0
   -2.2667   -2.9959    0.0000 C   0  0  0  0  0  0  0  0  0  0  0  0
   -1.6295   -1.6379    0.0000 C   0  0  0  0  0  0  0  0  0  0  0  0
   -2.4869   -0.4072    0.0000 N   0  0  0  0  0  0  0  0  0  0  0  0
   -3.9815   -0.5343    0.0000 C   0  0  0  0  0  0  0  0  0  0  0  0
   -4.8390    0.6965    0.0000 C   0  0  0  0  0  0  0  0  0  0  0  0
   -4.2018    2.0544    0.0000 C   0  0  0  0  0  0  0  0  0  0  0  0
   -2.7072    2.1816    0.0000 C   0  0  0  0  0  0  0  0  0  0  0  0
   -1.8498    0.9508    0.0000 C   0  0  0  0  0  0  0  0  0  0  0  0
   -0.3552    1.0780    0.0000 C   0  0  0  0  0  0  0  0  0  0  0  0
    0.2820    2.4359    0.0000 O   0  0  0  0  0  0  0  0  0  0  0  0
    0.5023   -0.1528    0.0000 N   0  0  0  0  0  0  0  0  0  0  0  0
    1.9969   -0.0257    0.0000 C   0  0  0  0  0  0  0  0  0  0  0  0
    2.8543   -1.2564    0.0000 C   0  0  0  0  0  0  0  0  0  0  0  0
    2.2171   -2.6144    0.0000 C   0  0  0  0  0  0  0  0  0  0  0  0
    4.3489   -1.1293    0.0000 C   0  0  0  0  0  0  0  0  0  0  0  0
    4.9861    0.2287    0.0000 C   0  0  0  0  0  0  0  0  0  0  0  0
    4.1286    1.4594    0.0000 C   0  0  0  0  0  0  0  0  0  0  0  0
    2.6340    1.3323    0.0000 C   0  0  0  0  0  0  0  0  0  0  0  0
    1.7766    2.5631    0.0000 C   0  0  0  0  0  0  0  0  0  0  0  0
  1  2  1  0
  2  3  1  0
  3  4  1  0
  4  5  1  0
  5  6  1  0
  6  7  1  0
  7  8  1  0
  8  9  1  0
  9 10  1  6
 10 11  2  0
 10 12  1  0
 12 13  1  0
 13 14  2  0
 14 15  1  0
 14 16  1  0
 16 17  2  0
 17 18  1  0
 18 19  2  0
 19 20  1  0
  9  4  1  0
 19 13  1  0
M  END
> <Identifier>
ROPIVACAINE HYDROCHLORIDE

> <hERG>
1

$$$$

     RDKit          2D

 35 39  0  0  0  0  0  0  0  0999 V2000
   -1.1102   -2.7753    0.0000 O   0  0  0  0  0  0  0  0  0  0  0  0
   -2.0161   -1.5798    0.0000 C   0  0  0  0  0  0  0  0  0  0  0  0
   -3.5044   -1.7665    0.0000 C   0  0  0  0  0  0  0  0  0  0  0  0
   -4.4103   -0.5710    0.0000 N   0  0  0  0  0  0  0  0  0  0  0  0
   -5.8987   -0.7578    0.0000 C   0  0  0  0  0  0  0  0  0  0  0  0
   -6.8046    0.4377    0.0000 C   0  0  0  0  0  0  0  0  0  0  0  0
   -8.2929    0.2510    0.0000 C   0  0  0  0  0  0  0  0  0  0  0  0
   -9.1988    1.4465    0.0000 C   0  0  0  0  0  0  0  0  0  0  0  0
  -10.6872    1.2597    0.0000 C   0  0  0  0  0  0  0  0  0  0  0  0
  -11.2696   -0.1226    0.0000 C   0  0  0  0  0  0  0  0  0  0  0  0
  -12.7579   -0.3094    0.0000 F   0  0  0  0  0  0  0  0  0  0  0  0
  -10.3636   -1.3181    0.0000 C   0  0  0  0  0  0  0  0  0  0  0  0
   -8.8753   -1.1314    0.0000 C   0  0  0  0  0  0  0  0  0  0  0  0
   -3.8279    0.8113    0.0000 C   0  0  0  0  0  0  0  0  0  0  0  0
   -2.3396    0.9981    0.0000 C   0  0  0  0  0  0  0  0  0  0  0  0
   -1.4337   -0.1974    0.0000 N   0  0  0  0  0  0  0  0  0  0  0  0
    0.0546   -0.0106    0.0000 C   0  0  0  0  0  0  0  0  0  0  0  0
    0.9606   -1.2062    0.0000 C   0  0  0  0  0  0  0  0  0  0  0  0
    2.4489   -1.0194    0.0000 C   0  0  0  0  0  0  0  0  0  0  0  0
    3.0313    0.3629    0.0000 C   0  0  0  0  0  0  0  0  0  0  0  0
    4.5196    0.5497    0.0000 C   0  0  0  0  0  0  0  0  0  0  0  0
    5.1020    1.9320    0.0000 C   0  0  0  0  0  0  0  0  0  0  0  0
    6.5903    2.1188    0.0000 C   0  0  0  0  0  0  0  0  0  0  0  0
    7.4963    0.9233    0.0000 N   0  0  0  0  0  0  0  0  0  0  0  0
    6.9139   -0.4590    0.0000 C   0  0  0  0  0  0  0  0  0  0  0  0
    7.8198   -1.6546    0.0000 C   0  0  0  0  0  0  0  0  0  0  0  0
    9.3081   -1.4678    0.0000 S   0  0  0  0  0  0  0  0  0  0  0  0
   10.7706   -1.8013    0.0000 O   0  0  0  0  0  0  0  0  0  0  0  0
    9.2336   -2.9659    0.0000 O   0  0  0  0  0  0  0  0  0  0  0  0
    9.8905   -0.0855    0.0000 C   0  0  0  0  0  0  0  0  0  0  0  0
    8.9846    1.1101    0.0000 C   0  0  0  0  0  0  0  0  0  0  0  0
    4.1961    3.1276    0.0000 C   0  0  0  0  0  0  0  0  0  0  0  0
    2.7078    2.9408    0.0000 C   0  0  0  0  0  0  0  0  0  0  0  0
    2.1254    1.5585    0.0000 C   0  0  0  0  0  0  0  0  0  0  0  0
    0.6370    1.3717    0.0000 C   0  0  0  0  0  0  0  0  0  0  0  0
  1  2  2  0
  2  3  1  0
  3  4  1  0
  4  5  1  0
  5  6  1  0
  6  7  1  0
  7  8  2  0
  8  9  1  0
  9 10  2  0
 10 11  1  0
 10 12  1  0
 12 13  2  0
  4 14  1  0
 14 15  1  0
 15 16  1  0
 17 16  1  6
 17 18  1  0
 18 19  1  0
 19 20  1  0
 20 21  2  0
 21 22  1  0
 22 23  1  0
 23 24  1  0
 24 25  1  0
 25 26  1  0
 26 27  1  0
 27 28  2  0
 27 29  2  0
 27 30  1  0
 30 31  1  0
 22 32  2  0
 32 33  1  0
 33 34  2  0
 34 35  1  0
 16  2  1  0
 35 17  1  0
 13  7  1  0
 34 20  1  0
 31 24  1  0
M  END
> <Identifier>
AMINOMETHYL TETRAHYDRONAPHTHALENE KETOPIPERAZINE 4G

> <hERG>
1

$$$$

     RDKit          2D

 37 40  0  0  0  0  0  0  0  0999 V2000
    8.7184    2.7675    0.0000 C   0  0  0  0  0  0  0  0  0  0  0  0
    7.6360    1.7290    0.0000 O   0  0  0  0  0  0  0  0  0  0  0  0
    7.9942    0.2724    0.0000 C   0  0  0  0  0  0  0  0  0  0  0  0
    9.4347   -0.1457    0.0000 C   0  0  0  0  0  0  0  0  0  0  0  0
    9.7929   -1.6023    0.0000 C   0  0  0  0  0  0  0  0  0  0  0  0
   11.2334   -2.0205    0.0000 N   0  0  0  0  0  0  0  0  0  0  0  0
    8.7105   -2.6408    0.0000 C   0  0  0  0  0  0  0  0  0  0  0  0
    9.0686   -4.0974    0.0000 Cl  0  0  0  0  0  0  0  0  0  0  0  0
    7.2699   -2.2227    0.0000 C   0  0  0  0  0  0  0  0  0  0  0  0
    6.9118   -0.7661    0.0000 C   0  0  0  0  0  0  0  0  0  0  0  0
    5.4712   -0.3479    0.0000 C   0  0  0  0  0  0  0  0  0  0  0  0
    4.3888   -1.3864    0.0000 O   0  0  0  0  0  0  0  0  0  0  0  0
    5.1131    1.1087    0.0000 N   0  0  0  0  0  0  0  0  0  0  0  0
    3.6725    1.5268    0.0000 C   0  0  0  0  0  0  0  0  0  0  0  0
    3.3144    2.9834    0.0000 C   0  0  0  0  0  0  0  0  0  0  0  0
    1.8738    3.4016    0.0000 C   0  0  0  0  0  0  0  0  0  0  0  0
    0.7914    2.3631    0.0000 N   0  0  0  0  0  0  0  0  0  0  0  0
   -0.6491    2.7812    0.0000 C   0  0  0  0  0  0  0  0  0  0  0  0
   -1.7315    1.7427    0.0000 C   0  0  0  0  0  0  0  0  0  0  0  0
   -3.1720    2.1609    0.0000 C   0  0  0  0  0  0  0  0  0  0  0  0
   -4.2544    1.1224    0.0000 C   0  0  0  0  0  0  0  0  0  0  0  0
   -5.6950    1.5405    0.0000 C   0  0  0  0  0  0  0  0  0  0  0  0
   -6.7773    0.5020    0.0000 C   0  0  0  0  0  0  0  0  0  0  0  0
   -6.4192   -0.9546    0.0000 O   0  0  0  0  0  0  0  0  0  0  0  0
   -8.2179    0.9202    0.0000 O   0  0  0  0  0  0  0  0  0  0  0  0
   -9.7173   -1.2974    0.0000 C   0  0  0  0  0  0  0  0  0  0  0  0
  -11.0199   -0.9193    0.0000 C   0  0  0  0  0  0  0  0  0  0  0  0
  -11.8232   -0.7387    0.0000 N   0  0  0  0  0  0  0  0  0  0  0  0
  -11.4650   -2.1953    0.0000 C   0  0  0  0  0  0  0  0  0  0  0  0
  -10.0245   -2.6134    0.0000 C   0  0  0  0  0  0  0  0  0  0  0  0
   -8.9421   -1.5749    0.0000 C   0  0  0  0  0  0  0  0  0  0  0  0
   -9.3003   -0.1183    0.0000 C   0  0  0  0  0  0  0  0  0  0  0  0
  -10.7408    0.2998    0.0000 C   0  0  0  0  0  0  0  0  0  0  0  0
    1.1496    0.9065    0.0000 C   0  0  0  0  0  0  0  0  0  0  0  0
    2.5901    0.4883    0.0000 C   0  0  0  0  0  0  0  0  0  0  0  0
    2.9483   -0.9683    0.0000 O   0  0  0  0  0  0  0  0  0  0  0  0
    1.8659   -2.0068    0.0000 C   0  0  0  0  0  0  0  0  0  0  0  0
  1  2  1  0
  2  3  1  0
  3  4  2  0
  4  5  1  0
  5  6  1  0
  5  7  2  0
  7  8  1  0
  7  9  1  0
  9 10  2  0
 10 11  1  0
 11 12  2  0
 11 13  1  0
 14 13  1  1
 14 15  1  0
 15 16  1  0
 16 17  1  0
 17 18  1  0
 18 19  1  0
 19 20  1  0
 20 21  1  0
 21 22  1  0
 22 23  1  0
 23 24  2  0
 23 25  1  0
 26 25  1  1
 26 27  1  0
 27 28  1  0
 28 29  1  0
 29 30  1  0
 30 31  1  0
 31 32  1  0
 32 33  1  0
 17 34  1  0
 34 35  1  0
 35 36  1  1
 36 37  1  0
 10  3  1  0
 35 14  1  0
 31 26  1  0
 33 28  1  0
M  END
> <Identifier>
ATI-7505

> <hERG>
1

$$$$

     RDKit          2D

 36 40  0  0  0  0  0  0  0  0999 V2000
   -9.4164    3.6626    0.0000 C   0  0  0  0  0  0  0  0  0  0  0  0
   -9.9602    2.2647    0.0000 C   0  0  0  0  0  0  0  0  0  0  0  0
  -11.4427    2.0366    0.0000 O   0  0  0  0  0  0  0  0  0  0  0  0
   -9.0214    1.0948    0.0000 N   0  0  0  0  0  0  0  0  0  0  0  0
   -7.5388    1.3228    0.0000 C   0  0  0  0  0  0  0  0  0  0  0  0
   -6.6000    0.1529    0.0000 C   0  0  0  0  0  0  0  0  0  0  0  0
   -7.1438   -1.2450    0.0000 N   0  0  0  0  0  0  0  0  0  0  0  0
   -6.2050   -2.4149    0.0000 C   0  0  0  0  0  0  0  0  0  0  0  0
   -4.7224   -2.1868    0.0000 C   0  0  0  0  0  0  0  0  0  0  0  0
   -3.7836   -3.3567    0.0000 C   0  0  0  0  0  0  0  0  0  0  0  0
   -2.3010   -3.1287    0.0000 C   0  0  0  0  0  0  0  0  0  0  0  0
   -1.7573   -1.7307    0.0000 C   0  0  0  0  0  0  0  0  0  0  0  0
   -2.6961   -0.5608    0.0000 C   0  0  0  0  0  0  0  0  0  0  0  0
   -4.1786   -0.7889    0.0000 C   0  0  0  0  0  0  0  0  0  0  0  0
   -2.1523    0.8372    0.0000 C   0  0  0  0  0  0  0  0  0  0  0  0
   -0.6698    1.0652    0.0000 C   0  0  0  0  0  0  0  0  0  0  0  0
    0.2690   -0.1046    0.0000 C   0  0  0  0  0  0  0  0  0  0  0  0
    1.7516    0.1234    0.0000 N   0  0  0  0  0  0  0  0  0  0  0  0
    2.6904   -1.0465    0.0000 C   0  0  0  0  0  0  0  0  0  0  0  0
    4.1730   -0.8184    0.0000 C   0  0  0  0  0  0  0  0  0  0  0  0
    4.7167    0.5796    0.0000 N   0  0  0  0  0  0  0  0  0  0  0  0
    6.1993    0.8077    0.0000 C   0  0  0  0  0  0  0  0  0  0  0  0
    7.1381   -0.3622    0.0000 C   0  0  0  0  0  0  0  0  0  0  0  0
    8.6206   -0.1342    0.0000 C   0  0  0  0  0  0  0  0  0  0  0  0
    9.5594   -1.3041    0.0000 C   0  0  0  0  0  0  0  0  0  0  0  0
   11.0420   -1.0760    0.0000 C   0  0  0  0  0  0  0  0  0  0  0  0
   11.5858    0.3220    0.0000 C   0  0  0  0  0  0  0  0  0  0  0  0
   13.0683    0.5501    0.0000 F   0  0  0  0  0  0  0  0  0  0  0  0
   10.6470    1.4919    0.0000 C   0  0  0  0  0  0  0  0  0  0  0  0
    9.1644    1.2638    0.0000 C   0  0  0  0  0  0  0  0  0  0  0  0
    3.7779    1.7495    0.0000 C   0  0  0  0  0  0  0  0  0  0  0  0
    2.2954    1.5214    0.0000 C   0  0  0  0  0  0  0  0  0  0  0  0
    1.3566    2.6913    0.0000 O   0  0  0  0  0  0  0  0  0  0  0  0
   -0.2747   -1.5026    0.0000 C   0  0  0  0  0  0  0  0  0  0  0  0
   -8.6263   -1.4731    0.0000 C   0  0  0  0  0  0  0  0  0  0  0  0
   -9.5651   -0.3032    0.0000 C   0  0  0  0  0  0  0  0  0  0  0  0
  1  2  1  0
  2  3  2  0
  2  4  1  0
  4  5  1  0
  5  6  1  0
  6  7  1  0
  7  8  1  0
  8  9  1  0
  9 10  2  0
 10 11  1  0
 11 12  2  0
 12 13  1  0
 13 14  2  0
 13 15  1  0
 15 16  1  0
 16 17  1  0
 17 18  1  6
 18 19  1  0
 19 20  1  0
 20 21  1  0
 21 22  1  0
 22 23  1  0
 23 24  1  0
 24 25  2  0
 25 26  1  0
 26 27  2  0
 27 28  1  0
 27 29  1  0
 29 30  2  0
 21 31  1  0
 31 32  1  0
 32 33  2  0
 17 34  1  0
  7 35  1  0
 35 36  1  0
 36  4  1  0
 14  9  1  0
 32 18  1  0
 34 12  1  0
 30 24  1  0
M  END
> <Identifier>
AMINOMETHYL TETRAHYDRONAPHTHALENE KETOPIPERAZINE 4H

> <hERG>
1

$$$$

     RDKit          2D

 37 40  0  0  0  0  0  0  0  0999 V2000
  -10.9968   -2.4474    0.0000 C   0  0  0  0  0  0  0  0  0  0  0  0
  -10.4717   -1.0423    0.0000 N   0  0  0  0  0  0  0  0  0  0  0  0
  -11.4260    0.1150    0.0000 C   0  0  0  0  0  0  0  0  0  0  0  0
   -8.9923   -0.7944    0.0000 C   0  0  0  0  0  0  0  0  0  0  0  0
   -8.0380   -1.9517    0.0000 O   0  0  0  0  0  0  0  0  0  0  0  0
   -8.4673    0.6107    0.0000 C   0  0  0  0  0  0  0  0  0  0  0  0
   -9.4216    1.7679    0.0000 C   0  0  0  0  0  0  0  0  0  0  0  0
  -10.9010    1.5201    0.0000 O   0  0  0  0  0  0  0  0  0  0  0  0
   -6.9879    0.8585    0.0000 N   0  0  0  0  0  0  0  0  0  0  0  0
   -6.4628    2.2636    0.0000 C   0  0  0  0  0  0  0  0  0  0  0  0
   -6.0336   -0.2988    0.0000 C   0  0  0  0  0  0  0  0  0  0  0  0
   -4.5542   -0.0509    0.0000 C   0  0  0  0  0  0  0  0  0  0  0  0
   -4.0291    1.3542    0.0000 C   0  0  0  0  0  0  0  0  0  0  0  0
   -2.5497    1.6020    0.0000 C   0  0  0  0  0  0  0  0  0  0  0  0
   -1.5954    0.4447    0.0000 C   0  0  0  0  0  0  0  0  0  0  0  0
   -2.1205   -0.9604    0.0000 C   0  0  0  0  0  0  0  0  0  0  0  0
   -3.5999   -1.2082    0.0000 C   0  0  0  0  0  0  0  0  0  0  0  0
   -1.1661   -2.1177    0.0000 C   0  0  0  0  0  0  0  0  0  0  0  0
    0.3132   -1.8698    0.0000 C   0  0  0  0  0  0  0  0  0  0  0  0
    0.8383   -0.4647    0.0000 C   0  0  0  0  0  0  0  0  0  0  0  0
    2.3177   -0.2169    0.0000 N   0  0  0  0  0  0  0  0  0  0  0  0
    3.2720   -1.3742    0.0000 C   0  0  0  0  0  0  0  0  0  0  0  0
    4.7514   -1.1264    0.0000 C   0  0  0  0  0  0  0  0  0  0  0  0
    5.2765    0.2787    0.0000 N   0  0  0  0  0  0  0  0  0  0  0  0
    6.7558    0.5266    0.0000 C   0  0  0  0  0  0  0  0  0  0  0  0
    7.7102   -0.6307    0.0000 C   0  0  0  0  0  0  0  0  0  0  0  0
    9.1895   -0.3829    0.0000 C   0  0  0  0  0  0  0  0  0  0  0  0
   10.1439   -1.5401    0.0000 C   0  0  0  0  0  0  0  0  0  0  0  0
   11.6233   -1.2923    0.0000 C   0  0  0  0  0  0  0  0  0  0  0  0
   12.1483    0.1128    0.0000 C   0  0  0  0  0  0  0  0  0  0  0  0
   13.6277    0.3606    0.0000 F   0  0  0  0  0  0  0  0  0  0  0  0
   11.1940    1.2700    0.0000 C   0  0  0  0  0  0  0  0  0  0  0  0
    9.7146    1.0222    0.0000 C   0  0  0  0  0  0  0  0  0  0  0  0
    4.3221    1.4360    0.0000 C   0  0  0  0  0  0  0  0  0  0  0  0
    2.8428    1.1882    0.0000 C   0  0  0  0  0  0  0  0  0  0  0  0
    1.8884    2.3455    0.0000 O   0  0  0  0  0  0  0  0  0  0  0  0
   -0.1160    0.6925    0.0000 C   0  0  0  0  0  0  0  0  0  0  0  0
  1  2  1  0
  2  3  1  0
  2  4  1  0
  4  5  2  0
  4  6  1  0
  6  7  1  1
  7  8  1  0
  6  9  1  0
  9 10  1  0
  9 11  1  0
 11 12  1  0
 12 13  2  0
 13 14  1  0
 14 15  2  0
 15 16  1  0
 16 17  2  0
 16 18  1  0
 18 19  1  0
 19 20  1  0
 20 21  1  1
 21 22  1  0
 22 23  1  0
 23 24  1  0
 24 25  1  0
 25 26  1  0
 26 27  1  0
 27 28  2  0
 28 29  1  0
 29 30  2  0
 30 31  1  0
 30 32  1  0
 32 33  2  0
 24 34  1  0
 34 35  1  0
 35 36  2  0
 20 37  1  0
 17 12  1  0
 35 21  1  0
 37 15  1  0
 33 27  1  0
M  END
> <Identifier>
AMINOMETHYL TETRAHYDRONAPHTHALENE KETOPIPERAZINE 4I

> <hERG>
1

$$$$

     RDKit          2D

 33 35  0  0  0  0  0  0  0  0999 V2000
    2.3404   -3.5537    0.0000 C   0  0  0  0  0  0  0  0  0  0  0  0
    0.8701   -3.8506    0.0000 C   0  0  0  0  0  0  0  0  0  0  0  0
   -0.6002   -4.1475    0.0000 C   0  0  0  0  0  0  0  0  0  0  0  0
    1.1670   -5.3210    0.0000 C   0  0  0  0  0  0  0  0  0  0  0  0
    0.5732   -2.3803    0.0000 C   0  0  0  0  0  0  0  0  0  0  0  0
    1.6981   -1.3880    0.0000 N   0  0  0  0  0  0  0  0  0  0  0  0
    3.1199   -1.8661    0.0000 C   0  0  0  0  0  0  0  0  0  0  0  0
    3.4168   -3.3364    0.0000 O   0  0  0  0  0  0  0  0  0  0  0  0
    4.2448   -0.8738    0.0000 O   0  0  0  0  0  0  0  0  0  0  0  0
    5.6666   -1.3518    0.0000 C   0  0  0  0  0  0  0  0  0  0  0  0
    6.7915   -0.3596    0.0000 C   0  0  0  0  0  0  0  0  0  0  0  0
    8.2132   -0.8376    0.0000 O   0  0  0  0  0  0  0  0  0  0  0  0
   -0.8486   -1.9023    0.0000 C   0  0  0  0  0  0  0  0  0  0  0  0
   -1.9735   -2.8945    0.0000 O   0  0  0  0  0  0  0  0  0  0  0  0
   -1.1455   -0.4319    0.0000 N   0  0  0  0  0  0  0  0  0  0  0  0
   -0.1305    0.6725    0.0000 C   0  0  0  0  0  0  0  0  0  0  0  0
   -0.8672    1.9791    0.0000 C   0  0  0  0  0  0  0  0  0  0  0  0
   -0.2431    3.3431    0.0000 C   0  0  0  0  0  0  0  0  0  0  0  0
    1.2502    3.4847    0.0000 C   0  0  0  0  0  0  0  0  0  0  0  0
    1.8742    4.8487    0.0000 C   0  0  0  0  0  0  0  0  0  0  0  0
    3.3675    4.9903    0.0000 F   0  0  0  0  0  0  0  0  0  0  0  0
    1.0050    6.0712    0.0000 C   0  0  0  0  0  0  0  0  0  0  0  0
   -0.4883    5.9296    0.0000 C   0  0  0  0  0  0  0  0  0  0  0  0
   -1.1124    4.5656    0.0000 C   0  0  0  0  0  0  0  0  0  0  0  0
   -2.6057    4.4240    0.0000 F   0  0  0  0  0  0  0  0  0  0  0  0
   -2.3375    1.6822    0.0000 C   0  0  0  0  0  0  0  0  0  0  0  0
   -2.5095    0.1921    0.0000 C   0  0  0  0  0  0  0  0  0  0  0  0
   -3.8161   -0.5446    0.0000 C   0  0  0  0  0  0  0  0  0  0  0  0
   -5.1074    0.2186    0.0000 C   0  0  0  0  0  0  0  0  0  0  0  0
   -6.4141   -0.5181    0.0000 C   0  0  0  0  0  0  0  0  0  0  0  0
   -6.4294   -2.0180    0.0000 C   0  0  0  0  0  0  0  0  0  0  0  0
   -5.1380   -2.7812    0.0000 C   0  0  0  0  0  0  0  0  0  0  0  0
   -3.8314   -2.0445    0.0000 C   0  0  0  0  0  0  0  0  0  0  0  0
  1  2  1  0
  2  3  1  0
  2  4  1  0
  2  5  1  0
  5  6  1  6
  6  7  1  0
  7  8  2  0
  7  9  1  0
  9 10  1  0
 10 11  1  0
 11 12  1  0
  5 13  1  0
 13 14  2  0
 13 15  1  0
 15 16  1  0
 16 17  1  0
 17 18  1  0
 18 19  2  0
 19 20  1  0
 20 21  1  0
 20 22  2  0
 22 23  1  0
 23 24  2  0
 24 25  1  0
 17 26  2  0
 26 27  1  0
 27 28  1  1
 28 29  2  0
 29 30  1  0
 30 31  2  0
 31 32  1  0
 32 33  2  0
 27 15  1  0
 33 28  1  0
 24 18  1  0
M  END
> <Identifier>
BMCL-16-2007-1777-21

> <hERG>
1

$$$$

     RDKit          2D

 33 35  0  0  0  0  0  0  0  0999 V2000
    2.1951   -5.1018    0.0000 C   0  0  0  0  0  0  0  0  0  0  0  0
    1.3329   -3.8743    0.0000 C   0  0  0  0  0  0  0  0  0  0  0  0
    0.4707   -2.6469    0.0000 C   0  0  0  0  0  0  0  0  0  0  0  0
    0.1055   -4.7366    0.0000 C   0  0  0  0  0  0  0  0  0  0  0  0
    2.5603   -3.0121    0.0000 O   0  0  0  0  0  0  0  0  0  0  0  0
    2.4273   -1.5180    0.0000 C   0  0  0  0  0  0  0  0  0  0  0  0
    1.0669   -0.8862    0.0000 C   0  0  0  0  0  0  0  0  0  0  0  0
    0.9339    0.6079    0.0000 C   0  0  0  0  0  0  0  0  0  0  0  0
   -0.4265    1.2398    0.0000 C   0  0  0  0  0  0  0  0  0  0  0  0
   -1.6539    0.3776    0.0000 C   0  0  0  0  0  0  0  0  0  0  0  0
   -3.0144    1.0094    0.0000 C   0  0  0  0  0  0  0  0  0  0  0  0
   -4.2418    0.1472    0.0000 N   0  0  0  0  0  0  0  0  0  0  0  0
   -4.1088   -1.3469    0.0000 C   0  0  0  0  0  0  0  0  0  0  0  0
   -5.3362   -2.2091    0.0000 C   0  0  0  0  0  0  0  0  0  0  0  0
   -4.4740   -3.4366    0.0000 C   0  0  0  0  0  0  0  0  0  0  0  0
   -6.1984   -0.9817    0.0000 C   0  0  0  0  0  0  0  0  0  0  0  0
   -6.5636   -3.0714    0.0000 O   0  0  0  0  0  0  0  0  0  0  0  0
   -2.7484   -1.9788    0.0000 C   0  0  0  0  0  0  0  0  0  0  0  0
   -1.5209   -1.1165    0.0000 C   0  0  0  0  0  0  0  0  0  0  0  0
   -0.5595    2.7339    0.0000 C   0  0  0  0  0  0  0  0  0  0  0  0
    0.6679    3.5961    0.0000 C   0  0  0  0  0  0  0  0  0  0  0  0
    0.5349    5.0902    0.0000 C   0  0  0  0  0  0  0  0  0  0  0  0
   -0.8256    5.7221    0.0000 N   0  0  0  0  0  4  0  0  0  0  0  0
   -0.9586    7.2162    0.0000 O   0  0  0  0  0  1  0  0  0  0  0  0
   -2.0530    4.8598    0.0000 C   0  0  0  0  0  0  0  0  0  0  0  0
   -1.9200    3.3657    0.0000 C   0  0  0  0  0  0  0  0  0  0  0  0
    2.1613    1.4702    0.0000 C   0  0  0  0  0  0  0  0  0  0  0  0
    3.5217    0.8383    0.0000 C   0  0  0  0  0  0  0  0  0  0  0  0
    3.6547   -0.6558    0.0000 C   0  0  0  0  0  0  0  0  0  0  0  0
    5.0152   -1.2876    0.0000 O   0  0  0  0  0  0  0  0  0  0  0  0
    6.2426   -0.4254    0.0000 C   0  0  0  0  0  0  0  0  0  0  0  0
    7.6030   -1.0573    0.0000 F   0  0  0  0  0  0  0  0  0  0  0  0
    6.1096    1.0687    0.0000 F   0  0  0  0  0  0  0  0  0  0  0  0
  1  2  1  0
  2  3  1  0
  2  4  1  0
  2  5  1  0
  5  6  1  0
  6  7  2  0
  7  8  1  0
  9  8  1  6
  9 10  1  0
 10 11  2  0
 11 12  1  0
 12 13  1  0
 13 14  1  6
 14 15  1  0
 14 16  1  0
 14 17  1  0
 13 18  1  0
 18 19  2  0
  9 20  1  0
 20 21  2  0
 21 22  1  0
 22 23  2  0
 23 24  1  0
 23 25  1  0
 25 26  2  0
  8 27  2  0
 27 28  1  0
 28 29  2  0
 29 30  1  0
 30 31  1  0
 31 32  1  0
 31 33  1  0
 29  6  1  0
 19 10  1  0
 26 20  1  0
M  CHG  2  23   1  24  -1
M  END
> <Identifier>
WOMBAT51

> <hERG>
1

$$$$

     RDKit          2D

 41 45  0  0  0  0  0  0  0  0999 V2000
   -1.1216   -3.4535    0.0000 C   0  0  0  0  0  0  0  0  0  0  0  0
   -0.4956   -2.0904    0.0000 O   0  0  0  0  0  0  0  0  0  0  0  0
   -1.3631   -0.8666    0.0000 C   0  0  0  0  0  0  0  0  0  0  0  0
   -2.8566   -1.0060    0.0000 C   0  0  0  0  0  0  0  0  0  0  0  0
   -3.7241    0.2177    0.0000 C   0  0  0  0  0  0  0  0  0  0  0  0
   -5.2176    0.0783    0.0000 C   0  0  0  0  0  0  0  0  0  0  0  0
   -5.8436   -1.2848    0.0000 O   0  0  0  0  0  0  0  0  0  0  0  0
   -6.0850    1.3020    0.0000 N   0  0  0  0  0  0  0  0  0  0  0  0
   -7.5786    1.1626    0.0000 S   0  0  0  0  0  0  0  0  0  0  0  0
   -7.7180    2.6561    0.0000 O   0  0  0  0  0  0  0  0  0  0  0  0
   -7.4392   -0.3309    0.0000 O   0  0  0  0  0  1  0  0  0  0  0  0
   -9.0721    1.0232    0.0000 C   0  0  0  0  0  0  0  0  0  0  0  0
   -9.9395    2.2469    0.0000 C   0  0  0  0  0  0  0  0  0  0  0  0
  -11.4330    2.1075    0.0000 C   0  0  0  0  0  0  0  0  0  0  0  0
  -12.0591    0.7444    0.0000 C   0  0  0  0  0  0  0  0  0  0  0  0
  -11.1916   -0.4793    0.0000 C   0  0  0  0  0  0  0  0  0  0  0  0
   -9.6981   -0.3399    0.0000 C   0  0  0  0  0  0  0  0  0  0  0  0
   -8.8306   -1.5636    0.0000 C   0  0  0  0  0  0  0  0  0  0  0  0
   -3.0980    1.5808    0.0000 C   0  0  0  0  0  0  0  0  0  0  0  0
   -1.6045    1.7202    0.0000 C   0  0  0  0  0  0  0  0  0  0  0  0
   -0.7370    0.4965    0.0000 C   0  0  0  0  0  0  0  0  0  0  0  0
    0.7565    0.6359    0.0000 C   0  0  0  0  0  0  0  0  0  0  0  0
    1.6239   -0.5879    0.0000 C   0  0  0  0  0  0  0  0  0  0  0  0
    1.1438   -2.0089    0.0000 C   0  0  0  0  0  0  0  0  0  0  0  0
    2.3470   -2.9047    0.0000 N   0  0  0  0  0  0  0  0  0  0  0  0
    2.3295   -4.4046    0.0000 C   0  0  0  0  0  0  0  0  0  0  0  0
    3.5707   -2.0372    0.0000 C   0  0  0  0  0  0  0  0  0  0  0  0
    5.0342   -2.3662    0.0000 C   0  0  0  0  0  0  0  0  0  0  0  0
    6.0508   -1.2632    0.0000 C   0  0  0  0  0  0  0  0  0  0  0  0
    5.6040    0.1687    0.0000 C   0  0  0  0  0  0  0  0  0  0  0  0
    6.6206    1.2716    0.0000 N   0  0  0  0  0  0  0  0  0  0  0  0
    8.0841    0.9427    0.0000 C   0  0  0  0  0  0  0  0  0  0  0  0
    8.5309   -0.4892    0.0000 O   0  0  0  0  0  0  0  0  0  0  0  0
    9.1007    2.0456    0.0000 O   0  0  0  0  0  0  0  0  0  0  0  0
   10.5642    1.7167    0.0000 C   0  0  0  0  0  0  0  0  0  0  0  0
   11.6905    2.7073    0.0000 C   0  0  0  0  0  0  0  0  0  0  0  0
   12.9807    1.9422    0.0000 C   0  0  0  0  0  0  0  0  0  0  0  0
   12.6518    0.4787    0.0000 C   0  0  0  0  0  0  0  0  0  0  0  0
   11.1583    0.3393    0.0000 C   0  0  0  0  0  0  0  0  0  0  0  0
    4.1405    0.4976    0.0000 C   0  0  0  0  0  0  0  0  0  0  0  0
    3.1238   -0.6053    0.0000 C   0  0  0  0  0  0  0  0  0  0  0  0
  1  2  1  0
  2  3  1  0
  3  4  2  0
  4  5  1  0
  5  6  1  0
  6  7  2  0
  6  8  1  0
  8  9  2  0
  9 10  2  0
  9 11  1  0
  9 12  1  0
 12 13  2  0
 13 14  1  0
 14 15  2  0
 15 16  1  0
 16 17  2  0
 17 18  1  0
  5 19  2  0
 19 20  1  0
 20 21  2  0
 21 22  1  0
 22 23  1  0
 23 24  2  0
 24 25  1  0
 25 26  1  0
 25 27  1  0
 27 28  2  0
 28 29  1  0
 29 30  2  0
 30 31  1  0
 31 32  1  0
 32 33  2  0
 32 34  1  0
 34 35  1  0
 35 36  1  0
 36 37  1  0
 37 38  1  0
 38 39  1  0
 30 40  1  0
 40 41  2  0
 21  3  1  0
 41 23  1  0
 17 12  1  0
 41 27  1  0
 39 35  1  0
M  CHG  1  11  -1
M  END
> <Identifier>
ZAFIRLUKAST

> <hERG>
1

$$$$

     RDKit          2D

 26 27  0  0  0  0  0  0  0  0999 V2000
   -8.6976   -0.7020    0.0000 C   0  0  0  0  0  0  0  0  0  0  0  0
   -7.5409    0.2531    0.0000 C   0  0  0  0  0  0  0  0  0  0  0  0
   -6.1355   -0.2712    0.0000 N   0  0  0  0  0  4  0  0  0  0  0  0
   -5.8867   -1.7504    0.0000 C   0  0  0  0  0  0  0  0  0  0  0  0
   -7.0434   -2.7054    0.0000 C   0  0  0  0  0  0  0  0  0  0  0  0
   -4.9788    0.6839    0.0000 C   0  0  0  0  0  0  0  0  0  0  0  0
   -3.5734    0.1597    0.0000 C   0  0  0  0  0  0  0  0  0  0  0  0
   -2.1679   -0.3645    0.0000 C   0  0  0  0  0  0  0  0  0  0  0  0
   -0.7625   -0.8887    0.0000 C   0  0  0  0  0  0  0  0  0  0  0  0
    0.3942    0.0663    0.0000 O   0  0  0  0  0  0  0  0  0  0  0  0
    1.7996   -0.4579    0.0000 C   0  0  0  0  0  0  0  0  0  0  0  0
    2.0483   -1.9372    0.0000 O   0  0  0  0  0  0  0  0  0  0  0  0
    2.9563    0.4971    0.0000 C   0  0  0  0  0  0  0  0  0  0  0  0
    4.1130    1.4521    0.0000 O   0  0  0  0  0  0  0  0  0  0  0  0
    3.9113   -0.6596    0.0000 C   0  0  0  0  0  0  0  0  0  0  0  0
    3.3871   -2.0650    0.0000 C   0  0  0  0  0  0  0  0  0  0  0  0
    4.3421   -3.2217    0.0000 C   0  0  0  0  0  0  0  0  0  0  0  0
    5.8214   -2.9730    0.0000 C   0  0  0  0  0  0  0  0  0  0  0  0
    6.3456   -1.5675    0.0000 C   0  0  0  0  0  0  0  0  0  0  0  0
    5.3905   -0.4109    0.0000 C   0  0  0  0  0  0  0  0  0  0  0  0
    2.0013    1.6538    0.0000 C   0  0  0  0  0  0  0  0  0  0  0  0
    2.5255    3.0592    0.0000 C   0  0  0  0  0  0  0  0  0  0  0  0
    1.5704    4.2159    0.0000 C   0  0  0  0  0  0  0  0  0  0  0  0
    0.0912    3.9672    0.0000 C   0  0  0  0  0  0  0  0  0  0  0  0
   -0.4330    2.5617    0.0000 C   0  0  0  0  0  0  0  0  0  0  0  0
    0.5220    1.4051    0.0000 C   0  0  0  0  0  0  0  0  0  0  0  0
  1  2  1  0
  2  3  1  0
  3  4  1  0
  4  5  1  0
  3  6  1  0
  6  7  1  0
  7  8  3  0
  8  9  1  0
  9 10  1  0
 10 11  1  0
 11 12  2  0
 11 13  1  0
 13 14  1  1
 13 15  1  0
 15 16  2  0
 16 17  1  0
 17 18  2  0
 18 19  1  0
 19 20  2  0
 13 21  1  0
 21 22  1  0
 22 23  1  0
 23 24  1  0
 24 25  1  0
 25 26  1  0
 20 15  1  0
 26 21  1  0
M  CHG  1   3   1
M  END
> <Identifier>
OXYBUTYNIN

> <hERG>
1

$$$$

     RDKit          2D

 32 34  0  0  0  0  0  0  0  0999 V2000
    6.1971   -0.8476    0.0000 C   0  0  0  0  0  0  0  0  0  0  0  0
    5.3863   -2.1096    0.0000 C   0  0  0  0  0  0  0  0  0  0  0  0
    4.5754   -3.3716    0.0000 C   0  0  0  0  0  0  0  0  0  0  0  0
    6.6482   -2.9204    0.0000 O   0  0  0  0  0  0  0  0  0  0  0  0
    4.1243   -1.2988    0.0000 C   0  0  0  0  0  0  0  0  0  0  0  0
    2.7911   -1.9863    0.0000 C   0  0  0  0  0  0  0  0  0  0  0  0
    1.5291   -1.1755    0.0000 C   0  0  0  0  0  0  0  0  0  0  0  0
    1.6003    0.3228    0.0000 C   0  0  0  0  0  0  0  0  0  0  0  0
    0.3384    1.1337    0.0000 C   0  0  0  0  0  0  0  0  0  0  0  0
    0.4096    2.6320    0.0000 C   0  0  0  0  0  0  0  0  0  0  0  0
    1.7427    3.3195    0.0000 C   0  0  0  0  0  0  0  0  0  0  0  0
    1.8139    4.8178    0.0000 C   0  0  0  0  0  0  0  0  0  0  0  0
    0.5519    5.6286    0.0000 N   0  0  0  0  0  4  0  0  0  0  0  0
    0.6231    7.1269    0.0000 O   0  0  0  0  0  1  0  0  0  0  0  0
   -0.7812    4.9411    0.0000 C   0  0  0  0  0  0  0  0  0  0  0  0
   -0.8524    3.4428    0.0000 C   0  0  0  0  0  0  0  0  0  0  0  0
   -0.9948    0.4462    0.0000 C   0  0  0  0  0  0  0  0  0  0  0  0
   -2.2568    1.2570    0.0000 C   0  0  0  0  0  0  0  0  0  0  0  0
   -3.5900    0.5695    0.0000 C   0  0  0  0  0  0  0  0  0  0  0  0
   -3.6612   -0.9288    0.0000 C   0  0  0  0  0  0  0  0  0  0  0  0
   -4.9943   -1.6163    0.0000 O   0  0  0  0  0  0  0  0  0  0  0  0
   -6.2563   -0.8055    0.0000 C   0  0  0  0  0  0  0  0  0  0  0  0
   -7.5895   -1.4930    0.0000 F   0  0  0  0  0  0  0  0  0  0  0  0
   -6.1851    0.6928    0.0000 F   0  0  0  0  0  0  0  0  0  0  0  0
   -2.3992   -1.7396    0.0000 C   0  0  0  0  0  0  0  0  0  0  0  0
   -2.4704   -3.2380    0.0000 O   0  0  0  0  0  0  0  0  0  0  0  0
   -1.2084   -4.0488    0.0000 C   0  0  0  0  0  0  0  0  0  0  0  0
   -1.2796   -5.5471    0.0000 F   0  0  0  0  0  0  0  0  0  0  0  0
    0.1248   -3.3613    0.0000 F   0  0  0  0  0  0  0  0  0  0  0  0
   -1.0660   -1.0522    0.0000 C   0  0  0  0  0  0  0  0  0  0  0  0
    2.9335    1.0103    0.0000 C   0  0  0  0  0  0  0  0  0  0  0  0
    4.1955    0.1995    0.0000 N   0  0  0  0  0  0  0  0  0  0  0  0
  1  2  1  0
  2  3  1  0
  2  4  1  0
  5  2  1  1
  5  6  1  0
  6  7  2  0
  7  8  1  0
  9  8  1  6
  9 10  1  0
 10 11  2  0
 11 12  1  0
 12 13  2  0
 13 14  1  0
 13 15  1  0
 15 16  2  0
  9 17  1  0
 17 18  2  0
 18 19  1  0
 19 20  2  0
 20 21  1  0
 21 22  1  0
 22 23  1  0
 22 24  1  0
 20 25  1  0
 25 26  1  0
 26 27  1  0
 27 28  1  0
 27 29  1  0
 25 30  2  0
  8 31  2  0
 31 32  1  0
 32  5  1  0
 16 10  1  0
 30 17  1  0
M  CHG  2  13   1  14  -1
M  END
> <Identifier>
WOMBAT45

> <hERG>
1

$$$$

     RDKit          2D

 22 25  0  0  0  0  0  0  0  0999 V2000
   -6.4989   -1.3556    0.0000 C   0  0  0  0  0  0  0  0  0  0  0  0
   -5.0857   -0.8527    0.0000 C   0  0  0  0  0  0  0  0  0  0  0  0
   -3.8482   -1.7003    0.0000 N   0  0  0  0  0  0  0  0  0  0  0  0
   -2.6596   -0.7853    0.0000 C   0  0  0  0  0  0  0  0  0  0  0  0
   -1.1843   -1.0564    0.0000 C   0  0  0  0  0  0  0  0  0  0  0  0
   -0.6814   -2.4696    0.0000 O   0  0  0  0  0  0  0  0  0  0  0  0
   -0.2119    0.0857    0.0000 N   0  0  0  0  0  0  0  0  0  0  0  0
    1.2634   -0.1853    0.0000 C   0  0  0  0  0  0  0  0  0  0  0  0
    2.2358    0.9568    0.0000 C   0  0  0  0  0  0  0  0  0  0  0  0
    3.5294    0.1975    0.0000 C   0  0  0  0  0  0  0  0  0  0  0  0
    4.8338    0.9382    0.0000 C   0  0  0  0  0  0  0  0  0  0  0  0
    6.1274    0.1789    0.0000 C   0  0  0  0  0  0  0  0  0  0  0  0
    6.1167   -1.3211    0.0000 C   0  0  0  0  0  0  0  0  0  0  0  0
    4.8123   -2.0617    0.0000 C   0  0  0  0  0  0  0  0  0  0  0  0
    3.5187   -1.3024    0.0000 C   0  0  0  0  0  0  0  0  0  0  0  0
    2.7589    2.3626    0.0000 C   0  0  0  0  0  0  0  0  0  0  0  0
    1.2799    2.1128    0.0000 C   0  0  0  0  0  0  0  0  0  0  0  0
   -0.7148    1.4989    0.0000 C   0  0  0  0  0  0  0  0  0  0  0  0
   -2.1901    1.7700    0.0000 C   0  0  0  0  0  0  0  0  0  0  0  0
   -3.1625    0.6278    0.0000 N   0  0  0  0  0  0  0  0  0  0  0  0
   -4.6619    0.5862    0.0000 C   0  0  0  0  0  0  0  0  0  0  0  0
   -5.5769    1.7748    0.0000 Br  0  0  0  0  0  0  0  0  0  0  0  0
  1  2  1  0
  2  3  1  0
  3  4  2  0
  4  5  1  0
  5  6  2  0
  5  7  1  0
  7  8  1  0
  8  9  1  0
  9 10  1  0
 10 11  2  0
 11 12  1  0
 12 13  2  0
 13 14  1  0
 14 15  2  0
  9 16  1  0
 16 17  1  0
  7 18  1  0
 18 19  2  0
 19 20  1  0
 20 21  1  0
 21 22  1  0
 21  2  2  0
 20  4  1  0
 17  9  1  0
 15 10  1  0
M  END
> <Identifier>
3-BROMO-2-METHYL-7-[(1-PHENYLCYCLOPROPYL)METHYL]IMIDAZO[1,2-A]PYRAZIN-8(7H)-ONE HYDROCHLORIDE

> <hERG>
1

$$$$

     RDKit          2D

 21 23  0  0  0  0  0  0  0  0999 V2000
   -1.1648   -5.1558    0.0000 C   0  0  0  0  0  0  0  0  0  0  0  0
   -0.1884   -4.0170    0.0000 N   0  0  0  0  0  0  0  0  0  0  0  0
    1.2859   -4.2932    0.0000 C   0  0  0  0  0  0  0  0  0  0  0  0
   -0.6865   -2.6021    0.0000 C   0  0  0  0  0  0  0  0  0  0  0  0
    0.2899   -1.4634    0.0000 C   0  0  0  0  0  0  0  0  0  0  0  0
    1.7850   -1.5839    0.0000 C   0  0  0  0  0  0  0  0  0  0  0  0
    2.3617   -0.1992    0.0000 C   0  0  0  0  0  0  0  0  0  0  0  0
    3.7766    0.2989    0.0000 C   0  0  0  0  0  0  0  0  0  0  0  0
    4.0527    1.7732    0.0000 C   0  0  0  0  0  0  0  0  0  0  0  0
    5.4677    2.2712    0.0000 Cl  0  0  0  0  0  0  0  0  0  0  0  0
    2.9140    2.7495    0.0000 C   0  0  0  0  0  0  0  0  0  0  0  0
    1.4991    2.2515    0.0000 C   0  0  0  0  0  0  0  0  0  0  0  0
    1.2229    0.7772    0.0000 C   0  0  0  0  0  0  0  0  0  0  0  0
   -0.0575   -0.0042    0.0000 N   0  0  0  0  0  0  0  0  0  0  0  0
   -1.4423    0.5725    0.0000 C   0  0  0  0  0  0  0  0  0  0  0  0
   -1.6352    2.0600    0.0000 C   0  0  0  0  0  0  0  0  0  0  0  0
   -3.0199    2.6367    0.0000 C   0  0  0  0  0  0  0  0  0  0  0  0
   -4.2117    1.7258    0.0000 C   0  0  0  0  0  0  0  0  0  0  0  0
   -5.5964    2.3024    0.0000 F   0  0  0  0  0  0  0  0  0  0  0  0
   -4.0187    0.2383    0.0000 C   0  0  0  0  0  0  0  0  0  0  0  0
   -2.6340   -0.3384    0.0000 C   0  0  0  0  0  0  0  0  0  0  0  0
  1  2  1  0
  2  3  1  0
  2  4  1  0
  4  5  1  0
  5  6  2  0
  6  7  1  0
  7  8  2  0
  8  9  1  0
  9 10  1  0
  9 11  2  0
 11 12  1  0
 12 13  2  0
 13 14  1  0
 14 15  1  0
 15 16  2  0
 16 17  1  0
 17 18  2  0
 18 19  1  0
 18 20  1  0
 20 21  2  0
 14  5  1  0
 21 15  1  0
 13  7  1  0
M  END
> <Identifier>
BMCL20031829_16

> <hERG>
1

$$$$

     RDKit          2D

 19 20  0  0  0  0  0  0  0  0999 V2000
   -5.6651   -2.3469    0.0000 C   0  0  0  0  0  0  0  0  0  0  0  0
   -4.5394   -1.3556    0.0000 N   0  0  0  0  0  4  0  0  0  0  0  0
   -4.8351    0.1150    0.0000 C   0  0  0  0  0  0  0  0  0  0  0  0
   -3.1180   -1.8348    0.0000 C   0  0  0  0  0  0  0  0  0  0  0  0
   -1.9923   -0.8435    0.0000 C   0  0  0  0  0  0  0  0  0  0  0  0
   -0.5709   -1.3227    0.0000 O   0  0  0  0  0  0  0  0  0  0  0  0
    0.5548   -0.3314    0.0000 C   0  0  0  0  0  0  0  0  0  0  0  0
    1.9762   -0.8106    0.0000 C   0  0  0  0  0  0  0  0  0  0  0  0
    2.2718   -2.2812    0.0000 C   0  0  0  0  0  0  0  0  0  0  0  0
    3.6932   -2.7604    0.0000 C   0  0  0  0  0  0  0  0  0  0  0  0
    4.8189   -1.7691    0.0000 C   0  0  0  0  0  0  0  0  0  0  0  0
    4.5233   -0.2985    0.0000 C   0  0  0  0  0  0  0  0  0  0  0  0
    3.1019    0.1807    0.0000 C   0  0  0  0  0  0  0  0  0  0  0  0
    0.2591    1.1392    0.0000 C   0  0  0  0  0  0  0  0  0  0  0  0
    1.3848    2.1306    0.0000 C   0  0  0  0  0  0  0  0  0  0  0  0
    1.0892    3.6011    0.0000 C   0  0  0  0  0  0  0  0  0  0  0  0
   -0.3322    4.0804    0.0000 C   0  0  0  0  0  0  0  0  0  0  0  0
   -1.4579    3.0890    0.0000 C   0  0  0  0  0  0  0  0  0  0  0  0
   -1.1623    1.6184    0.0000 C   0  0  0  0  0  0  0  0  0  0  0  0
  1  2  1  0
  2  3  1  0
  2  4  1  0
  4  5  1  0
  5  6  1  0
  6  7  1  0
  7  8  1  0
  8  9  2  0
  9 10  1  0
 10 11  2  0
 11 12  1  0
 12 13  2  0
  7 14  1  0
 14 15  2  0
 15 16  1  0
 16 17  2  0
 17 18  1  0
 18 19  2  0
 13  8  1  0
 19 14  1  0
M  CHG  1   2   1
M  END
> <Identifier>
DIPHENHYDRAMINE

> <hERG>
1

$$$$

     RDKit          2D

 27 29  0  0  0  0  0  0  0  0999 V2000
   -9.0070   -0.8749    0.0000 O   0  0  0  0  0  0  0  0  0  0  0  0
   -8.4820    0.5302    0.0000 C   0  0  0  0  0  0  0  0  0  0  0  0
   -9.4363    1.6875    0.0000 O   0  0  0  0  0  1  0  0  0  0  0  0
   -7.0026    0.7781    0.0000 C   0  0  0  0  0  0  0  0  0  0  0  0
   -6.0483   -0.3792    0.0000 O   0  0  0  0  0  0  0  0  0  0  0  0
   -4.5689   -0.1313    0.0000 C   0  0  0  0  0  0  0  0  0  0  0  0
   -3.6145   -1.2886    0.0000 C   0  0  0  0  0  0  0  0  0  0  0  0
   -2.1352   -1.0407    0.0000 N   0  0  0  0  0  4  0  0  0  0  0  0
   -1.6101    0.3644    0.0000 C   0  0  0  0  0  0  0  0  0  0  0  0
   -0.1307    0.6123    0.0000 C   0  0  0  0  0  0  0  0  0  0  0  0
    0.8236   -0.5450    0.0000 N   0  0  0  0  0  4  0  0  0  0  0  0
    2.3030   -0.2971    0.0000 C   0  0  0  0  0  0  0  0  0  0  0  0
    3.2573   -1.4544    0.0000 C   0  0  0  0  0  0  0  0  0  0  0  0
    2.7323   -2.8595    0.0000 C   0  0  0  0  0  0  0  0  0  0  0  0
    3.6866   -4.0167    0.0000 C   0  0  0  0  0  0  0  0  0  0  0  0
    5.1660   -3.7689    0.0000 C   0  0  0  0  0  0  0  0  0  0  0  0
    5.6910   -2.3638    0.0000 C   0  0  0  0  0  0  0  0  0  0  0  0
    4.7367   -1.2065    0.0000 C   0  0  0  0  0  0  0  0  0  0  0  0
    2.8280    1.1080    0.0000 C   0  0  0  0  0  0  0  0  0  0  0  0
    4.3074    1.3559    0.0000 C   0  0  0  0  0  0  0  0  0  0  0  0
    4.8324    2.7610    0.0000 C   0  0  0  0  0  0  0  0  0  0  0  0
    3.8781    3.9182    0.0000 C   0  0  0  0  0  0  0  0  0  0  0  0
    4.4031    5.3233    0.0000 Cl  0  0  0  0  0  0  0  0  0  0  0  0
    2.3987    3.6704    0.0000 C   0  0  0  0  0  0  0  0  0  0  0  0
    1.8737    2.2652    0.0000 C   0  0  0  0  0  0  0  0  0  0  0  0
    0.2986   -1.9501    0.0000 C   0  0  0  0  0  0  0  0  0  0  0  0
   -1.1808   -2.1979    0.0000 C   0  0  0  0  0  0  0  0  0  0  0  0
  1  2  2  0
  2  3  1  0
  2  4  1  0
  4  5  1  0
  5  6  1  0
  6  7  1  0
  7  8  1  0
  8  9  1  0
  9 10  1  0
 10 11  1  0
 12 11  1  1
 12 13  1  0
 13 14  2  0
 14 15  1  0
 15 16  2  0
 16 17  1  0
 17 18  2  0
 12 19  1  0
 19 20  2  0
 20 21  1  0
 21 22  2  0
 22 23  1  0
 22 24  1  0
 24 25  2  0
 11 26  1  0
 26 27  1  0
 27  8  1  0
 18 13  1  0
 25 19  1  0
M  CHG  3   3  -1   8   1  11   1
M  END
> <Identifier>
CETIRIZINE

> <hERG>
1

$$$$

     RDKit          2D

 25 27  0  0  0  0  0  0  0  0999 V2000
   -1.8728   -5.0346    0.0000 C   0  0  0  0  0  0  0  0  0  0  0  0
   -0.9625   -3.8424    0.0000 N   0  0  0  0  0  0  0  0  0  0  0  0
    0.5251   -4.0346    0.0000 C   0  0  0  0  0  0  0  0  0  0  0  0
   -1.5399   -2.4579    0.0000 C   0  0  0  0  0  0  0  0  0  0  0  0
   -3.0275   -2.2657    0.0000 O   0  0  0  0  0  0  0  0  0  0  0  0
   -0.6296   -1.2657    0.0000 N   0  0  0  0  0  0  0  0  0  0  0  0
    0.8700   -1.3014    0.0000 C   0  0  0  0  0  0  0  0  0  0  0  0
    1.3673    0.1138    0.0000 C   0  0  0  0  0  0  0  0  0  0  0  0
    2.8045    0.5433    0.0000 C   0  0  0  0  0  0  0  0  0  0  0  0
    3.8950   -0.4867    0.0000 C   0  0  0  0  0  0  0  0  0  0  0  0
    5.3322   -0.0572    0.0000 C   0  0  0  0  0  0  0  0  0  0  0  0
    6.4228   -1.0871    0.0000 F   0  0  0  0  0  0  0  0  0  0  0  0
    5.6789    1.4022    0.0000 C   0  0  0  0  0  0  0  0  0  0  0  0
    4.5883    2.4321    0.0000 C   0  0  0  0  0  0  0  0  0  0  0  0
    3.1511    2.0027    0.0000 C   0  0  0  0  0  0  0  0  0  0  0  0
    2.0606    3.0326    0.0000 F   0  0  0  0  0  0  0  0  0  0  0  0
    0.1751    1.0241    0.0000 C   0  0  0  0  0  0  0  0  0  0  0  0
   -1.0591    0.1715    0.0000 C   0  0  0  0  0  0  0  0  0  0  0  0
   -2.4742    0.6688    0.0000 C   0  0  0  0  0  0  0  0  0  0  0  0
   -3.6125   -0.3081    0.0000 C   0  0  0  0  0  0  0  0  0  0  0  0
   -5.0277    0.1892    0.0000 C   0  0  0  0  0  0  0  0  0  0  0  0
   -5.3046    1.6634    0.0000 C   0  0  0  0  0  0  0  0  0  0  0  0
   -4.1663    2.6403    0.0000 C   0  0  0  0  0  0  0  0  0  0  0  0
   -4.4432    4.1145    0.0000 O   0  0  0  0  0  0  0  0  0  0  0  0
   -2.7511    2.1430    0.0000 C   0  0  0  0  0  0  0  0  0  0  0  0
  1  2  1  0
  2  3  1  0
  2  4  1  0
  4  5  2  0
  4  6  1  0
  6  7  1  0
  7  8  1  0
  8  9  1  0
  9 10  2  0
 10 11  1  0
 11 12  1  0
 11 13  2  0
 13 14  1  0
 14 15  2  0
 15 16  1  0
  8 17  2  0
 17 18  1  0
 18 19  1  1
 19 20  2  0
 20 21  1  0
 21 22  2  0
 22 23  1  0
 23 24  1  0
 23 25  2  0
 18  6  1  0
 25 19  1  0
 15  9  1  0
M  END
> <Identifier>
BMCL-16-2006-17782-19

> <hERG>
1

$$$$

     RDKit          2D

 33 37  0  0  0  0  0  0  0  0999 V2000
   10.4648    3.2318    0.0000 C   0  0  0  0  0  0  0  0  0  0  0  0
    9.2003    2.4249    0.0000 O   0  0  0  0  0  0  0  0  0  0  0  0
    7.8693    3.1166    0.0000 C   0  0  0  0  0  0  0  0  0  0  0  0
    6.6048    2.3097    0.0000 C   0  0  0  0  0  0  0  0  0  0  0  0
    6.6713    0.8111    0.0000 C   0  0  0  0  0  0  0  0  0  0  0  0
    5.4069    0.0042    0.0000 C   0  0  0  0  0  0  0  0  0  0  0  0
    4.0758    0.6959    0.0000 C   0  0  0  0  0  0  0  0  0  0  0  0
    2.8113   -0.1110    0.0000 N   0  0  0  0  0  0  0  0  0  0  0  0
    1.4153    0.4377    0.0000 C   0  0  0  0  0  0  0  0  0  0  0  0
    0.4621   -0.7205    0.0000 C   0  0  0  0  0  0  0  0  0  0  0  0
   -1.0352   -0.6300    0.0000 C   0  0  0  0  0  0  0  0  0  0  0  0
   -1.7055    0.7118    0.0000 C   0  0  0  0  0  0  0  0  0  0  0  0
   -3.2028    0.8023    0.0000 C   0  0  0  0  0  0  0  0  0  0  0  0
   -4.0298   -0.4492    0.0000 N   0  0  0  0  0  4  0  0  0  0  0  0
   -5.5270   -0.3587    0.0000 C   0  0  0  0  0  0  0  0  0  0  0  0
   -6.1973    0.9832    0.0000 C   0  0  0  0  0  0  0  0  0  0  0  0
   -7.6946    1.0736    0.0000 N   0  0  0  0  0  0  0  0  0  0  0  0
   -8.6478   -0.0845    0.0000 C   0  0  0  0  0  0  0  0  0  0  0  0
  -10.0439    0.4642    0.0000 C   0  0  0  0  0  0  0  0  0  0  0  0
   -9.9534    1.9615    0.0000 N   0  0  0  0  0  0  0  0  0  0  0  0
   -8.5015    2.3381    0.0000 C   0  0  0  0  0  0  0  0  0  0  0  0
   -7.9528    3.7342    0.0000 O   0  0  0  0  0  0  0  0  0  0  0  0
   -3.3594   -1.7911    0.0000 C   0  0  0  0  0  0  0  0  0  0  0  0
   -1.8622   -1.8815    0.0000 C   0  0  0  0  0  0  0  0  0  0  0  0
    1.2690   -1.9850    0.0000 C   0  0  0  0  0  0  0  0  0  0  0  0
    0.8692   -3.4307    0.0000 C   0  0  0  0  0  0  0  0  0  0  0  0
    1.9214   -4.4998    0.0000 C   0  0  0  0  0  0  0  0  0  0  0  0
    1.5216   -5.9456    0.0000 Cl  0  0  0  0  0  0  0  0  0  0  0  0
    3.3733   -4.1231    0.0000 C   0  0  0  0  0  0  0  0  0  0  0  0
    3.7731   -2.6774    0.0000 C   0  0  0  0  0  0  0  0  0  0  0  0
    2.7209   -1.6083    0.0000 C   0  0  0  0  0  0  0  0  0  0  0  0
    4.0093    2.1944    0.0000 C   0  0  0  0  0  0  0  0  0  0  0  0
    5.2738    3.0013    0.0000 C   0  0  0  0  0  0  0  0  0  0  0  0
  1  2  1  0
  2  3  1  0
  3  4  1  0
  4  5  2  0
  5  6  1  0
  6  7  2  0
  7  8  1  0
  8  9  1  0
  9 10  2  0
 10 11  1  0
 11 12  1  0
 12 13  1  0
 13 14  1  0
 14 15  1  0
 15 16  1  0
 16 17  1  0
 17 18  1  0
 18 19  1  0
 19 20  1  0
 20 21  1  0
 21 22  2  0
 14 23  1  0
 23 24  1  0
 10 25  1  0
 25 26  2  0
 26 27  1  0
 27 28  1  0
 27 29  2  0
 29 30  1  0
 30 31  2  0
  7 32  1  0
 32 33  2  0
 33  4  1  0
 31  8  1  0
 24 11  1  0
 31 25  1  0
 21 17  1  0
M  CHG  1  14   1
M  END
> <Identifier>
SERTINDOLE8

> <hERG>
1

$$$$

     RDKit          2D

 20 22  0  0  0  0  0  0  0  0999 V2000
    1.7994   -3.1938    0.0000 O   0  0  0  0  0  0  0  0  0  0  0  0
    1.2309   -1.8057    0.0000 C   0  0  0  0  0  0  0  0  0  0  0  0
   -0.2555   -1.6040    0.0000 C   0  0  0  0  0  0  0  0  0  0  0  0
   -0.8240   -0.2159    0.0000 C   0  0  0  0  0  0  0  0  0  0  0  0
   -2.3104   -0.0142    0.0000 C   0  0  0  0  0  0  0  0  0  0  0  0
   -2.8789    1.3738    0.0000 C   0  0  0  0  0  0  0  0  0  0  0  0
   -4.3653    1.5755    0.0000 C   0  0  0  0  0  0  0  0  0  0  0  0
   -5.2832    0.3891    0.0000 C   0  0  0  0  0  0  0  0  0  0  0  0
   -6.7695    0.5908    0.0000 O   0  0  0  0  0  0  0  0  0  0  0  0
   -4.7146   -0.9989    0.0000 C   0  0  0  0  0  0  0  0  0  0  0  0
   -3.2282   -1.2006    0.0000 C   0  0  0  0  0  0  0  0  0  0  0  0
    0.0938    0.9705    0.0000 O   0  0  0  0  0  0  0  0  0  0  0  0
    1.5802    0.7688    0.0000 C   0  0  0  0  0  0  0  0  0  0  0  0
    2.4981    1.9552    0.0000 C   0  0  0  0  0  0  0  0  0  0  0  0
    3.9845    1.7535    0.0000 C   0  0  0  0  0  0  0  0  0  0  0  0
    4.9023    2.9399    0.0000 O   0  0  0  0  0  0  0  0  0  0  0  0
    4.5530    0.3654    0.0000 C   0  0  0  0  0  0  0  0  0  0  0  0
    3.6351   -0.8210    0.0000 C   0  0  0  0  0  0  0  0  0  0  0  0
    4.2036   -2.2091    0.0000 O   0  0  0  0  0  0  0  0  0  0  0  0
    2.1487   -0.6193    0.0000 C   0  0  0  0  0  0  0  0  0  0  0  0
  1  2  2  0
  2  3  1  0
  3  4  1  0
  4  5  1  1
  5  6  2  0
  6  7  1  0
  7  8  2  0
  8  9  1  0
  8 10  1  0
 10 11  2  0
  4 12  1  0
 12 13  1  0
 13 14  2  0
 14 15  1  0
 15 16  1  0
 15 17  2  0
 17 18  1  0
 18 19  1  0
 18 20  2  0
 20  2  1  0
 11  5  1  0
 20 13  1  0
M  END
> <Identifier>
NARINGENIN

> <hERG>
1

$$$$

     RDKit          2D

 58 60  0  0  0  0  0  0  0  0999 V2000
   -0.4931   -6.6687    0.0000 C   0  0  0  0  0  0  0  0  0  0  0  0
    0.7640   -5.8503    0.0000 C   0  0  0  0  0  0  0  0  0  0  0  0
    0.6838   -4.3525    0.0000 C   0  0  0  0  0  0  0  0  0  0  0  0
   -0.7943   -4.0973    0.0000 O   0  0  0  0  0  0  0  0  0  0  0  0
   -2.0154   -3.2261    0.0000 C   0  0  0  0  0  0  0  0  0  0  0  0
   -3.1365   -4.2227    0.0000 O   0  0  0  0  0  0  0  0  0  0  0  0
   -2.7375   -1.9114    0.0000 C   0  0  0  0  0  0  0  0  0  0  0  0
   -3.9076   -2.5849    0.0000 C   0  0  0  0  0  0  0  0  0  0  0  0
   -2.8177   -0.4135    0.0000 C   0  0  0  0  0  0  0  0  0  0  0  0
   -4.2959   -0.1584    0.0000 O   0  0  0  0  0  0  0  0  0  0  0  0
   -5.2559   -1.3110    0.0000 C   0  0  0  0  0  0  0  0  0  0  0  0
   -6.7340   -1.0558    0.0000 C   0  0  0  0  0  0  0  0  0  0  0  0
   -7.6940   -2.2084    0.0000 C   0  0  0  0  0  0  0  0  0  0  0  0
   -8.9904   -2.9631    0.0000 C   0  0  0  0  0  0  0  0  0  0  0  0
   -8.6624   -1.0628    0.0000 O   0  0  0  0  0  0  0  0  0  0  0  0
  -10.1386   -1.3286    0.0000 C   0  0  0  0  0  0  0  0  0  0  0  0
   -7.1759   -3.6160    0.0000 C   0  0  0  0  0  0  0  0  0  0  0  0
   -8.1359   -4.7686    0.0000 O   0  0  0  0  0  0  0  0  0  0  0  0
   -5.6978   -3.8712    0.0000 C   0  0  0  0  0  0  0  0  0  0  0  0
   -5.1797   -5.2789    0.0000 C   0  0  0  0  0  0  0  0  0  0  0  0
   -4.7378   -2.7186    0.0000 O   0  0  0  0  0  0  0  0  0  0  0  0
   -2.2401    0.9708    0.0000 C   0  0  0  0  0  0  0  0  0  0  0  0
   -3.4611    1.8420    0.0000 C   0  0  0  0  0  0  0  0  0  0  0  0
   -1.1190    1.9674    0.0000 C   0  0  0  0  0  0  0  0  0  0  0  0
   -1.8411    3.2821    0.0000 O   0  0  0  0  0  0  0  0  0  0  0  0
   -1.0636    4.5648    0.0000 C   0  0  0  0  0  0  0  0  0  0  0  0
    0.4361    4.5329    0.0000 O   0  0  0  0  0  0  0  0  0  0  0  0
    1.2136    5.8156    0.0000 C   0  0  0  0  0  0  0  0  0  0  0  0
    2.7132    5.7836    0.0000 C   0  0  0  0  0  0  0  0  0  0  0  0
    0.4914    7.1303    0.0000 C   0  0  0  0  0  0  0  0  0  0  0  0
   -1.0082    7.1623    0.0000 C   0  0  0  0  0  0  0  0  0  0  0  0
   -1.7304    8.4771    0.0000 N   0  0  0  0  0  4  0  0  0  0  0  0
   -0.9528    9.7598    0.0000 C   0  0  0  0  0  0  0  0  0  0  0  0
   -3.2300    8.5090    0.0000 C   0  0  0  0  0  0  0  0  0  0  0  0
   -1.7857    5.8796    0.0000 C   0  0  0  0  0  0  0  0  0  0  0  0
   -3.2854    5.9115    0.0000 O   0  0  0  0  0  0  0  0  0  0  0  0
    0.3235    2.3788    0.0000 C   0  0  0  0  0  0  0  0  0  0  0  0
   -0.5866    3.5712    0.0000 C   0  0  0  0  0  0  0  0  0  0  0  0
    1.1010    3.6616    0.0000 O   0  0  0  0  0  0  0  0  0  0  0  0
    1.8016    2.1237    0.0000 C   0  0  0  0  0  0  0  0  0  0  0  0
    3.0227    1.2525    0.0000 C   0  0  0  0  0  0  0  0  0  0  0  0
    4.1438    2.2491    0.0000 C   0  0  0  0  0  0  0  0  0  0  0  0
    3.7448   -0.0622    0.0000 C   0  0  0  0  0  0  0  0  0  0  0  0
    5.1873    0.3492    0.0000 N   0  0  0  0  0  0  0  0  0  0  0  0
    6.2649   -0.6942    0.0000 O   0  0  0  0  0  0  0  0  0  0  0  0
    7.7073   -0.2828    0.0000 C   0  0  0  0  0  0  0  0  0  0  0  0
    8.7849   -1.3262    0.0000 O   0  0  0  0  0  0  0  0  0  0  0  0
   10.2273   -0.9147    0.0000 C   0  0  0  0  0  0  0  0  0  0  0  0
   11.3049   -1.9582    0.0000 C   0  0  0  0  0  0  0  0  0  0  0  0
   12.7474   -1.5467    0.0000 O   0  0  0  0  0  0  0  0  0  0  0  0
   13.8250   -2.5902    0.0000 C   0  0  0  0  0  0  0  0  0  0  0  0
    3.8250   -1.5601    0.0000 C   0  0  0  0  0  0  0  0  0  0  0  0
    5.3031   -1.8152    0.0000 C   0  0  0  0  0  0  0  0  0  0  0  0
    3.2473   -2.9444    0.0000 C   0  0  0  0  0  0  0  0  0  0  0  0
    4.4684   -3.8156    0.0000 O   0  0  0  0  0  0  0  0  0  0  0  0
    2.1263   -3.9410    0.0000 C   0  0  0  0  0  0  0  0  0  0  0  0
    3.4635   -4.6205    0.0000 C   0  0  0  0  0  0  0  0  0  0  0  0
    1.9823   -5.4341    0.0000 O   0  0  0  0  0  0  0  0  0  0  0  0
  1  2  1  0
  3  2  1  1
  3  4  1  0
  4  5  1  0
  5  6  2  0
  5  7  1  0
  7  8  1  1
  7  9  1  0
  9 10  1  1
 11 10  1  6
 11 12  1  0
 12 13  1  0
 13 14  1  1
 13 15  1  0
 15 16  1  0
 13 17  1  0
 17 18  1  6
 17 19  1  0
 19 20  1  1
 19 21  1  0
  9 22  1  0
 22 23  1  6
 22 24  1  0
 24 25  1  1
 26 25  1  1
 26 27  1  0
 27 28  1  0
 28 29  1  1
 28 30  1  0
 30 31  1  0
 31 32  1  1
 32 33  1  0
 32 34  1  0
 31 35  1  0
 35 36  1  1
 24 37  1  0
 37 38  1  1
 37 39  1  0
 37 40  1  0
 40 41  1  0
 41 42  1  1
 41 43  1  0
 43 44  2  0
 44 45  1  0
 45 46  1  0
 46 47  1  0
 47 48  1  0
 48 49  1  0
 49 50  1  0
 50 51  1  0
 43 52  1  0
 52 53  1  6
 52 54  1  0
 54 55  1  1
 54 56  1  0
 56 57  1  1
 56 58  1  0
 56  3  1  0
 21 11  1  0
 35 26  1  0
M  CHG  1  32   1
M  END
> <Identifier>
ROXITHROMYCIN

> <hERG>
1

$$$$

     RDKit          2D

 37 39  0  0  0  0  0  0  0  0999 V2000
    3.0128   -5.3222    0.0000 C   0  0  0  0  0  0  0  0  0  0  0  0
    2.7075   -3.8536    0.0000 C   0  0  0  0  0  0  0  0  0  0  0  0
    1.2830   -3.3837    0.0000 C   0  0  0  0  0  0  0  0  0  0  0  0
    3.8267   -2.8549    0.0000 O   0  0  0  0  0  0  0  0  0  0  0  0
    3.5213   -1.3863    0.0000 C   0  0  0  0  0  0  0  0  0  0  0  0
    2.0968   -0.9164    0.0000 C   0  0  0  0  0  0  0  0  0  0  0  0
    1.7915    0.5522    0.0000 C   0  0  0  0  0  0  0  0  0  0  0  0
    0.3670    1.0221    0.0000 C   0  0  0  0  0  0  0  0  0  0  0  0
   -0.7522    0.0234    0.0000 C   0  0  0  0  0  0  0  0  0  0  0  0
   -0.6020   -1.4691    0.0000 C   0  0  0  0  0  0  0  0  0  0  0  0
   -1.9751   -2.0731    0.0000 N   0  0  0  0  0  0  0  0  0  0  0  0
   -2.9738   -0.9539    0.0000 C   0  0  0  0  0  0  0  0  0  0  0  0
   -4.4662   -1.1040    0.0000 C   0  0  0  0  0  0  0  0  0  0  0  0
   -5.9587   -1.2542    0.0000 O   0  0  0  0  0  0  0  0  0  0  0  0
   -4.3161   -2.5965    0.0000 C   0  0  0  0  0  0  0  0  0  0  0  0
   -4.1660   -4.0890    0.0000 F   0  0  0  0  0  0  0  0  0  0  0  0
   -5.8086   -2.7466    0.0000 F   0  0  0  0  0  0  0  0  0  0  0  0
   -2.8236   -2.4464    0.0000 F   0  0  0  0  0  0  0  0  0  0  0  0
   -4.6164    0.3884    0.0000 C   0  0  0  0  0  0  0  0  0  0  0  0
   -4.7665    1.8809    0.0000 F   0  0  0  0  0  0  0  0  0  0  0  0
   -6.1088    0.2383    0.0000 F   0  0  0  0  0  0  0  0  0  0  0  0
   -3.1239    0.5386    0.0000 F   0  0  0  0  0  0  0  0  0  0  0  0
   -2.2180    0.3418    0.0000 S   0  0  0  0  0  0  0  0  0  0  0  0
    0.0617    2.4907    0.0000 C   0  0  0  0  0  0  0  0  0  0  0  0
    1.1809    3.4894    0.0000 C   0  0  0  0  0  0  0  0  0  0  0  0
    0.8756    4.9580    0.0000 C   0  0  0  0  0  0  0  0  0  0  0  0
   -0.5489    5.4279    0.0000 C   0  0  0  0  0  0  0  0  0  0  0  0
   -1.6681    4.4292    0.0000 N   0  0  0  0  0  4  0  0  0  0  0  0
   -3.0926    4.8991    0.0000 O   0  0  0  0  0  1  0  0  0  0  0  0
   -1.3628    2.9606    0.0000 C   0  0  0  0  0  0  0  0  0  0  0  0
    2.9107    1.5509    0.0000 C   0  0  0  0  0  0  0  0  0  0  0  0
    4.3352    1.0810    0.0000 C   0  0  0  0  0  0  0  0  0  0  0  0
    4.6405   -0.3876    0.0000 C   0  0  0  0  0  0  0  0  0  0  0  0
    6.0650   -0.8575    0.0000 O   0  0  0  0  0  0  0  0  0  0  0  0
    7.1842    0.1412    0.0000 C   0  0  0  0  0  0  0  0  0  0  0  0
    8.6087   -0.3286    0.0000 F   0  0  0  0  0  0  0  0  0  0  0  0
    6.8789    1.6098    0.0000 F   0  0  0  0  0  0  0  0  0  0  0  0
  1  2  1  0
  2  3  1  0
  2  4  1  0
  4  5  1  0
  5  6  2  0
  6  7  1  0
  8  7  1  6
  8  9  1  0
  9 10  2  0
 10 11  1  0
 11 12  1  0
 12 13  1  6
 13 14  1  0
 13 15  1  0
 15 16  1  0
 15 17  1  0
 15 18  1  0
 13 19  1  0
 19 20  1  0
 19 21  1  0
 19 22  1  0
 12 23  1  0
  8 24  1  0
 24 25  2  0
 25 26  1  0
 26 27  2  0
 27 28  1  0
 28 29  1  0
 28 30  2  0
  7 31  2  0
 31 32  1  0
 32 33  2  0
 33 34  1  0
 34 35  1  0
 35 36  1  0
 35 37  1  0
 33  5  1  0
 23  9  1  0
 30 24  1  0
M  CHG  2  28   1  29  -1
M  END
> <Identifier>
WOMBAT13

> <hERG>
1

$$$$

     RDKit          2D

 37 39  0  0  0  0  0  0  0  0999 V2000
    3.0128   -5.3222    0.0000 C   0  0  0  0  0  0  0  0  0  0  0  0
    2.7075   -3.8536    0.0000 C   0  0  0  0  0  0  0  0  0  0  0  0
    1.2830   -3.3837    0.0000 C   0  0  0  0  0  0  0  0  0  0  0  0
    3.8267   -2.8549    0.0000 O   0  0  0  0  0  0  0  0  0  0  0  0
    3.5213   -1.3863    0.0000 C   0  0  0  0  0  0  0  0  0  0  0  0
    2.0968   -0.9164    0.0000 C   0  0  0  0  0  0  0  0  0  0  0  0
    1.7915    0.5522    0.0000 C   0  0  0  0  0  0  0  0  0  0  0  0
    0.3670    1.0221    0.0000 C   0  0  0  0  0  0  0  0  0  0  0  0
   -0.7522    0.0234    0.0000 C   0  0  0  0  0  0  0  0  0  0  0  0
   -0.6020   -1.4691    0.0000 C   0  0  0  0  0  0  0  0  0  0  0  0
   -1.9751   -2.0731    0.0000 N   0  0  0  0  0  0  0  0  0  0  0  0
   -2.9738   -0.9539    0.0000 C   0  0  0  0  0  0  0  0  0  0  0  0
   -4.4662   -1.1040    0.0000 C   0  0  0  0  0  0  0  0  0  0  0  0
   -5.9587   -1.2542    0.0000 O   0  0  0  0  0  0  0  0  0  0  0  0
   -4.3161   -2.5965    0.0000 C   0  0  0  0  0  0  0  0  0  0  0  0
   -4.1660   -4.0890    0.0000 F   0  0  0  0  0  0  0  0  0  0  0  0
   -5.8086   -2.7466    0.0000 F   0  0  0  0  0  0  0  0  0  0  0  0
   -2.8236   -2.4464    0.0000 F   0  0  0  0  0  0  0  0  0  0  0  0
   -4.6164    0.3884    0.0000 C   0  0  0  0  0  0  0  0  0  0  0  0
   -4.7665    1.8809    0.0000 F   0  0  0  0  0  0  0  0  0  0  0  0
   -6.1088    0.2383    0.0000 F   0  0  0  0  0  0  0  0  0  0  0  0
   -3.1239    0.5386    0.0000 F   0  0  0  0  0  0  0  0  0  0  0  0
   -2.2180    0.3418    0.0000 S   0  0  0  0  0  0  0  0  0  0  0  0
    0.0617    2.4907    0.0000 C   0  0  0  0  0  0  0  0  0  0  0  0
    1.1809    3.4894    0.0000 C   0  0  0  0  0  0  0  0  0  0  0  0
    0.8756    4.9580    0.0000 C   0  0  0  0  0  0  0  0  0  0  0  0
   -0.5489    5.4279    0.0000 C   0  0  0  0  0  0  0  0  0  0  0  0
   -1.6681    4.4292    0.0000 N   0  0  0  0  0  4  0  0  0  0  0  0
   -3.0926    4.8991    0.0000 O   0  0  0  0  0  1  0  0  0  0  0  0
   -1.3628    2.9606    0.0000 C   0  0  0  0  0  0  0  0  0  0  0  0
    2.9107    1.5509    0.0000 C   0  0  0  0  0  0  0  0  0  0  0  0
    4.3352    1.0810    0.0000 C   0  0  0  0  0  0  0  0  0  0  0  0
    4.6405   -0.3876    0.0000 C   0  0  0  0  0  0  0  0  0  0  0  0
    6.0650   -0.8575    0.0000 O   0  0  0  0  0  0  0  0  0  0  0  0
    7.1842    0.1412    0.0000 C   0  0  0  0  0  0  0  0  0  0  0  0
    8.6087   -0.3286    0.0000 F   0  0  0  0  0  0  0  0  0  0  0  0
    6.8789    1.6098    0.0000 F   0  0  0  0  0  0  0  0  0  0  0  0
  1  2  1  0
  2  3  1  0
  2  4  1  0
  4  5  1  0
  5  6  2  0
  6  7  1  0
  8  7  1  1
  8  9  1  0
  9 10  2  0
 10 11  1  0
 11 12  1  0
 12 13  1  1
 13 14  1  0
 13 15  1  0
 15 16  1  0
 15 17  1  0
 15 18  1  0
 13 19  1  0
 19 20  1  0
 19 21  1  0
 19 22  1  0
 12 23  1  0
  8 24  1  0
 24 25  2  0
 25 26  1  0
 26 27  2  0
 27 28  1  0
 28 29  1  0
 28 30  2  0
  7 31  2  0
 31 32  1  0
 32 33  2  0
 33 34  1  0
 34 35  1  0
 35 36  1  0
 35 37  1  0
 33  5  1  0
 23  9  1  0
 30 24  1  0
M  CHG  2  28   1  29  -1
M  END
> <Identifier>
WOMBAT16

> <hERG>
1

$$$$

     RDKit          2D

 39 41  0  0  0  0  0  0  0  0999 V2000
   -6.6600    1.0689    0.0000 C   0  0  0  0  0  0  0  0  0  0  0  0
   -5.2209    1.4919    0.0000 C   0  0  0  0  0  0  0  0  0  0  0  0
   -4.1350    0.4571    0.0000 N   0  0  0  0  0  0  0  0  0  0  0  0
   -4.4882   -1.0007    0.0000 C   0  0  0  0  0  0  0  0  0  0  0  0
   -5.9273   -1.4237    0.0000 C   0  0  0  0  0  0  0  0  0  0  0  0
   -2.6959    0.8801    0.0000 C   0  0  0  0  0  0  0  0  0  0  0  0
   -1.6100   -0.1547    0.0000 C   0  0  0  0  0  0  0  0  0  0  0  0
   -0.1709    0.2684    0.0000 O   0  0  0  0  0  0  0  0  0  0  0  0
    0.9151   -0.7664    0.0000 C   0  0  0  0  0  0  0  0  0  0  0  0
    0.5619   -2.2243    0.0000 O   0  0  0  0  0  0  0  0  0  0  0  0
    2.3542   -0.3434    0.0000 C   0  0  0  0  0  0  0  0  0  0  0  0
    2.7074    1.1144    0.0000 C   0  0  0  0  0  0  0  0  0  0  0  0
    4.1465    1.5375    0.0000 C   0  0  0  0  0  0  0  0  0  0  0  0
    5.2324    0.5027    0.0000 C   0  0  0  0  0  0  0  0  0  0  0  0
    6.6715    0.9257    0.0000 N   0  0  0  0  0  0  0  0  0  0  0  0
    4.8792   -0.9552    0.0000 C   0  0  0  0  0  0  0  0  0  0  0  0
    3.4401   -1.3782    0.0000 C   0  0  0  0  0  0  0  0  0  0  0  0
   -5.2997    2.5375    0.0000 C   0  0  0  0  0  0  0  0  0  0  0  0
   -4.2928    3.6493    0.0000 N   0  0  0  0  0  0  0  0  0  0  0  0
   -4.7522    5.0772    0.0000 C   0  0  0  0  0  0  0  0  0  0  0  0
   -2.8265    3.3331    0.0000 C   0  0  0  0  0  0  0  0  0  0  0  0
   -1.8196    4.4449    0.0000 C   0  0  0  0  0  0  0  0  0  0  0  0
   -0.3533    4.1288    0.0000 C   0  0  0  0  0  0  0  0  0  0  0  0
    0.6537    5.2406    0.0000 N   0  0  0  0  0  0  0  0  0  0  0  0
    2.0922    4.8158    0.0000 C   0  0  0  0  0  0  0  0  0  0  0  0
    2.2224    3.3215    0.0000 C   0  0  0  0  0  0  0  0  0  0  0  0
    3.5816    2.6870    0.0000 C   0  0  0  0  0  0  0  0  0  0  0  0
    4.8106    3.5468    0.0000 C   0  0  0  0  0  0  0  0  0  0  0  0
    4.6805    5.0412    0.0000 C   0  0  0  0  0  0  0  0  0  0  0  0
    3.3213    5.6757    0.0000 C   0  0  0  0  0  0  0  0  0  0  0  0
    3.4154    7.1727    0.0000 C   0  0  0  0  0  0  0  0  0  0  0  0
    2.3036    8.1796    0.0000 C   0  0  0  0  0  0  0  0  0  0  0  0
    0.8231    7.9382    0.0000 C   0  0  0  0  0  0  0  0  0  0  0  0
    0.0575    9.2281    0.0000 C   0  0  0  0  0  0  0  0  0  0  0  0
   -1.4424    9.2100    0.0000 C   0  0  0  0  0  0  0  0  0  0  0  0
   -2.1767    7.9020    0.0000 C   0  0  0  0  0  0  0  0  0  0  0  0
   -3.6765    7.8839    0.0000 Cl  0  0  0  0  0  0  0  0  0  0  0  0
   -1.4110    6.6121    0.0000 C   0  0  0  0  0  0  0  0  0  0  0  0
    0.0888    6.6302    0.0000 C   0  0  0  0  0  0  0  0  0  0  0  0
  1  2  1  0
  2  3  1  0
  3  4  1  0
  4  5  1  0
  3  6  1  0
  6  7  1  0
  7  8  1  0
  8  9  1  0
  9 10  2  0
  9 11  1  0
 11 12  2  0
 12 13  1  0
 13 14  2  0
 14 15  1  0
 14 16  1  0
 16 17  2  0
 18 19  1  0
 19 20  1  0
 19 21  1  0
 21 22  1  0
 22 23  1  0
 23 24  1  0
 24 25  1  0
 25 26  2  0
 26 27  1  0
 27 28  2  0
 28 29  1  0
 29 30  2  0
 30 31  1  0
 31 32  1  0
 32 33  1  0
 33 34  2  0
 34 35  1  0
 35 36  2  0
 36 37  1  0
 36 38  1  0
 38 39  2  0
 17 11  1  0
 39 24  1  0
 30 25  1  0
 39 33  1  0
M  END
> <Identifier>
PROCAINE

> <hERG>
1

$$$$

     RDKit          2D

 32 34  0  0  0  0  0  0  0  0999 V2000
    1.2796   -5.5471    0.0000 C   0  0  0  0  0  0  0  0  0  0  0  0
    1.2084   -4.0488    0.0000 C   0  0  0  0  0  0  0  0  0  0  0  0
   -0.1248   -3.3613    0.0000 C   0  0  0  0  0  0  0  0  0  0  0  0
    2.4704   -3.2380    0.0000 O   0  0  0  0  0  0  0  0  0  0  0  0
    2.3992   -1.7396    0.0000 C   0  0  0  0  0  0  0  0  0  0  0  0
    1.0660   -1.0522    0.0000 C   0  0  0  0  0  0  0  0  0  0  0  0
    0.9948    0.4462    0.0000 C   0  0  0  0  0  0  0  0  0  0  0  0
   -0.3384    1.1337    0.0000 C   0  0  0  0  0  0  0  0  0  0  0  0
   -1.6003    0.3228    0.0000 C   0  0  0  0  0  0  0  0  0  0  0  0
   -2.9335    1.0103    0.0000 C   0  0  0  0  0  0  0  0  0  0  0  0
   -4.1955    0.1995    0.0000 N   0  0  0  0  0  0  0  0  0  0  0  0
   -4.1243   -1.2988    0.0000 C   0  0  0  0  0  0  0  0  0  0  0  0
   -5.3863   -2.1096    0.0000 C   0  0  0  0  0  0  0  0  0  0  0  0
   -4.5754   -3.3716    0.0000 C   0  0  0  0  0  0  0  0  0  0  0  0
   -6.1971   -0.8476    0.0000 C   0  0  0  0  0  0  0  0  0  0  0  0
   -6.6482   -2.9204    0.0000 O   0  0  0  0  0  0  0  0  0  0  0  0
   -2.7911   -1.9863    0.0000 C   0  0  0  0  0  0  0  0  0  0  0  0
   -1.5291   -1.1755    0.0000 C   0  0  0  0  0  0  0  0  0  0  0  0
   -0.4096    2.6320    0.0000 C   0  0  0  0  0  0  0  0  0  0  0  0
    0.8524    3.4428    0.0000 C   0  0  0  0  0  0  0  0  0  0  0  0
    0.7812    4.9411    0.0000 C   0  0  0  0  0  0  0  0  0  0  0  0
   -0.5519    5.6286    0.0000 N   0  0  0  0  0  4  0  0  0  0  0  0
   -0.6231    7.1269    0.0000 O   0  0  0  0  0  1  0  0  0  0  0  0
   -1.8139    4.8178    0.0000 C   0  0  0  0  0  0  0  0  0  0  0  0
   -1.7427    3.3195    0.0000 C   0  0  0  0  0  0  0  0  0  0  0  0
    2.2568    1.2570    0.0000 C   0  0  0  0  0  0  0  0  0  0  0  0
    3.5900    0.5695    0.0000 C   0  0  0  0  0  0  0  0  0  0  0  0
    3.6612   -0.9288    0.0000 C   0  0  0  0  0  0  0  0  0  0  0  0
    4.9943   -1.6163    0.0000 O   0  0  0  0  0  0  0  0  0  0  0  0
    6.2563   -0.8055    0.0000 C   0  0  0  0  0  0  0  0  0  0  0  0
    7.5895   -1.4930    0.0000 F   0  0  0  0  0  0  0  0  0  0  0  0
    6.1851    0.6928    0.0000 F   0  0  0  0  0  0  0  0  0  0  0  0
  1  2  1  0
  2  3  1  0
  2  4  1  0
  4  5  1  0
  5  6  2  0
  6  7  1  0
  8  7  1  6
  8  9  1  0
  9 10  2  0
 10 11  1  0
 11 12  1  0
 12 13  1  6
 13 14  1  0
 13 15  1  0
 13 16  1  0
 12 17  1  0
 17 18  2  0
  8 19  1  0
 19 20  2  0
 20 21  1  0
 21 22  2  0
 22 23  1  0
 22 24  1  0
 24 25  2  0
  7 26  2  0
 26 27  1  0
 27 28  2  0
 28 29  1  0
 29 30  1  0
 30 31  1  0
 30 32  1  0
 28  5  1  0
 18  9  1  0
 25 19  1  0
M  CHG  2  22   1  23  -1
M  END
> <Identifier>
WOMBAT47

> <hERG>
0

$$$$

     RDKit          2D

 32 34  0  0  0  0  0  0  0  0999 V2000
    6.1993   -1.8915    0.0000 C   0  0  0  0  0  0  0  0  0  0  0  0
    4.7949   -1.3647    0.0000 C   0  0  0  0  0  0  0  0  0  0  0  0
    3.6365   -2.3177    0.0000 C   0  0  0  0  0  0  0  0  0  0  0  0
    4.5488    0.1149    0.0000 O   0  0  0  0  0  0  0  0  0  0  0  0
    3.1443    0.6417    0.0000 C   0  0  0  0  0  0  0  0  0  0  0  0
    1.9859   -0.3113    0.0000 C   0  0  0  0  0  0  0  0  0  0  0  0
    0.5815    0.2155    0.0000 C   0  0  0  0  0  0  0  0  0  0  0  0
   -0.5770   -0.7374    0.0000 C   0  0  0  0  0  0  0  0  0  0  0  0
   -1.9814   -0.2107    0.0000 C   0  0  0  0  0  0  0  0  0  0  0  0
   -2.2275    1.2690    0.0000 C   0  0  0  0  0  0  0  0  0  0  0  0
   -3.6320    1.7957    0.0000 N   0  0  0  0  0  0  0  0  0  0  0  0
   -4.7904    0.8428    0.0000 C   0  0  0  0  0  0  0  0  0  0  0  0
   -6.1948    1.3695    0.0000 C   0  0  0  0  0  0  0  0  0  0  0  0
   -6.7216   -0.0350    0.0000 C   0  0  0  0  0  0  0  0  0  0  0  0
   -5.6681    2.7740    0.0000 C   0  0  0  0  0  0  0  0  0  0  0  0
   -7.5993    1.8963    0.0000 O   0  0  0  0  0  0  0  0  0  0  0  0
   -4.5443   -0.6369    0.0000 C   0  0  0  0  0  0  0  0  0  0  0  0
   -3.1398   -1.1636    0.0000 C   0  0  0  0  0  0  0  0  0  0  0  0
   -0.3309   -2.2171    0.0000 C   0  0  0  0  0  0  0  0  0  0  0  0
   -1.4893   -3.1701    0.0000 C   0  0  0  0  0  0  0  0  0  0  0  0
   -1.2432   -4.6497    0.0000 C   0  0  0  0  0  0  0  0  0  0  0  0
    0.1612   -5.1765    0.0000 C   0  0  0  0  0  0  0  0  0  0  0  0
    1.3196   -4.2235    0.0000 N   0  0  0  0  0  4  0  0  0  0  0  0
    2.7241   -4.7503    0.0000 O   0  0  0  0  0  1  0  0  0  0  0  0
    1.0736   -2.7439    0.0000 C   0  0  0  0  0  0  0  0  0  0  0  0
    0.3354    1.6952    0.0000 C   0  0  0  0  0  0  0  0  0  0  0  0
    1.4938    2.6481    0.0000 C   0  0  0  0  0  0  0  0  0  0  0  0
    2.8983    2.1214    0.0000 C   0  0  0  0  0  0  0  0  0  0  0  0
    4.0567    3.0743    0.0000 O   0  0  0  0  0  0  0  0  0  0  0  0
    3.8106    4.5540    0.0000 C   0  0  0  0  0  0  0  0  0  0  0  0
    4.9690    5.5069    0.0000 F   0  0  0  0  0  0  0  0  0  0  0  0
    2.4061    5.0807    0.0000 F   0  0  0  0  0  0  0  0  0  0  0  0
  1  2  1  0
  2  3  1  0
  2  4  1  0
  4  5  1  0
  5  6  2  0
  6  7  1  0
  8  7  1  1
  8  9  1  0
  9 10  2  0
 10 11  1  0
 11 12  1  0
 12 13  1  6
 13 14  1  0
 13 15  1  0
 13 16  1  0
 12 17  1  0
 17 18  2  0
  8 19  1  0
 19 20  2  0
 20 21  1  0
 21 22  2  0
 22 23  1  0
 23 24  1  0
 23 25  2  0
  7 26  2  0
 26 27  1  0
 27 28  2  0
 28 29  1  0
 29 30  1  0
 30 31  1  0
 30 32  1  0
 28  5  1  0
 18  9  1  0
 25 19  1  0
M  CHG  2  23   1  24  -1
M  END
> <Identifier>
WOMBAT48

> <hERG>
0

$$$$

     RDKit          2D

 37 41  0  0  0  0  0  0  0  0999 V2000
   -1.8379   -2.1230    0.0000 C   0  0  0  0  0  0  0  0  0  0  0  0
   -0.7985   -1.0415    0.0000 C   0  0  0  0  0  0  0  0  0  0  0  0
    0.6874   -1.2466    0.0000 N   0  0  0  0  0  0  0  0  0  0  0  0
    1.3417    0.1031    0.0000 N   0  0  0  0  0  0  0  0  0  0  0  0
    0.2602    1.1425    0.0000 C   0  0  0  0  0  0  0  0  0  0  0  0
    0.4653    2.6284    0.0000 C   0  0  0  0  0  0  0  0  0  0  0  0
    1.8548    3.1937    0.0000 C   0  0  0  0  0  0  0  0  0  0  0  0
   -0.7189    3.5491    0.0000 C   0  0  0  0  0  0  0  0  0  0  0  0
   -1.0626    0.4351    0.0000 N   0  0  0  0  0  0  0  0  0  0  0  0
   -2.4123    1.0894    0.0000 C   0  0  0  0  0  0  0  0  0  0  0  0
   -3.6539    0.2477    0.0000 C   0  0  0  0  0  0  0  0  0  0  0  0
   -5.0036    0.9020    0.0000 C   0  0  0  0  0  0  0  0  0  0  0  0
   -6.0851    1.9414    0.0000 C   0  0  0  0  0  0  0  0  0  0  0  0
   -5.4308    3.2911    0.0000 C   0  0  0  0  0  0  0  0  0  0  0  0
   -3.9449    3.0859    0.0000 C   0  0  0  0  0  0  0  0  0  0  0  0
   -2.5206    2.5855    0.0000 C   0  0  0  0  0  0  0  0  0  0  0  0
   -3.6809    1.6094    0.0000 N   0  0  0  0  0  0  0  0  0  0  0  0
   -2.3311    0.9551    0.0000 C   0  0  0  0  0  0  0  0  0  0  0  0
   -2.2229   -0.5410    0.0000 C   0  0  0  0  0  0  0  0  0  0  0  0
   -0.8731   -1.1953    0.0000 C   0  0  0  0  0  0  0  0  0  0  0  0
    0.3684   -0.3536    0.0000 N   0  0  0  0  0  0  0  0  0  0  0  0
    1.7182   -1.0079    0.0000 C   0  0  0  0  0  0  0  0  0  0  0  0
    1.8264   -2.5040    0.0000 O   0  0  0  0  0  0  0  0  0  0  0  0
    2.9597   -0.1661    0.0000 C   0  0  0  0  0  0  0  0  0  0  0  0
    4.3095   -0.8204    0.0000 C   0  0  0  0  0  0  0  0  0  0  0  0
    5.5510    0.0214    0.0000 C   0  0  0  0  0  0  0  0  0  0  0  0
    5.4428    1.5175    0.0000 C   0  0  0  0  0  0  0  0  0  0  0  0
    5.8528    2.9603    0.0000 F   0  0  0  0  0  0  0  0  0  0  0  0
    6.9349    1.3642    0.0000 F   0  0  0  0  0  0  0  0  0  0  0  0
    4.0930    2.1718    0.0000 C   0  0  0  0  0  0  0  0  0  0  0  0
    2.8515    1.3300    0.0000 C   0  0  0  0  0  0  0  0  0  0  0  0
   -0.7649   -2.6914    0.0000 C   0  0  0  0  0  0  0  0  0  0  0  0
   -2.0064   -3.5332    0.0000 C   0  0  0  0  0  0  0  0  0  0  0  0
   -1.8982   -5.0293    0.0000 C   0  0  0  0  0  0  0  0  0  0  0  0
   -0.5484   -5.6836    0.0000 C   0  0  0  0  0  0  0  0  0  0  0  0
    0.6931   -4.8418    0.0000 C   0  0  0  0  0  0  0  0  0  0  0  0
    0.5849   -3.3458    0.0000 C   0  0  0  0  0  0  0  0  0  0  0  0
  1  2  1  0
  2  3  2  0
  3  4  1  0
  4  5  2  0
  5  6  1  0
  6  7  1  0
  6  8  1  0
  5  9  1  0
  9 10  1  0
 10 11  1  0
 12 11  1  6
 12 13  1  0
 13 14  1  0
 15 14  1  6
 15 16  1  0
 15 17  1  0
 17 18  1  0
 18 19  1  0
 20 19  1  6
 20 21  1  0
 21 22  1  0
 22 23  2  0
 22 24  1  0
 24 25  1  0
 25 26  1  0
 26 27  1  0
 27 28  1  0
 27 29  1  0
 27 30  1  0
 30 31  1  0
 20 32  1  0
 32 33  2  0
 33 34  1  0
 34 35  2  0
 35 36  1  0
 36 37  2  0
  9  2  1  0
 16 10  1  0
 31 24  1  0
 37 32  1  0
 17 12  1  0
M  END
> <Identifier>
MARAVIROC

> <hERG>
0

$$$$

     RDKit          2D

 32 35  0  0  0  0  0  0  0  0999 V2000
   -7.5255   -3.5222    0.0000 C   0  0  0  0  0  0  0  0  0  0  0  0
   -7.8426   -2.0561    0.0000 O   0  0  0  0  0  0  0  0  0  0  0  0
   -6.7315   -1.0484    0.0000 C   0  0  0  0  0  0  0  0  0  0  0  0
   -5.3032   -1.5068    0.0000 C   0  0  0  0  0  0  0  0  0  0  0  0
   -4.1921   -0.4992    0.0000 C   0  0  0  0  0  0  0  0  0  0  0  0
   -4.5092    0.9669    0.0000 C   0  0  0  0  0  0  0  0  0  0  0  0
   -3.3981    1.9746    0.0000 C   0  0  0  0  0  0  0  0  0  0  0  0
   -1.9699    1.5162    0.0000 C   0  0  0  0  0  0  0  0  0  0  0  0
   -1.6527    0.0501    0.0000 O   0  0  0  0  0  0  0  0  0  0  0  0
   -0.8587    2.5239    0.0000 N   0  0  0  0  0  0  0  0  0  0  0  0
    0.5695    2.0654    0.0000 C   0  0  0  0  0  0  0  0  0  0  0  0
    0.8866    0.5993    0.0000 C   0  0  0  0  0  0  0  0  0  0  0  0
    2.3148    0.1409    0.0000 C   0  0  0  0  0  0  0  0  0  0  0  0
    3.4260    1.1486    0.0000 C   0  0  0  0  0  0  0  0  0  0  0  0
    3.1089    2.6147    0.0000 C   0  0  0  0  0  0  0  0  0  0  0  0
    1.6806    3.0731    0.0000 C   0  0  0  0  0  0  0  0  0  0  0  0
    1.3635    4.5392    0.0000 N   0  0  0  0  0  4  0  0  0  0  0  0
    2.4746    5.5469    0.0000 O   0  0  0  0  0  0  0  0  0  0  0  0
   -0.0647    4.9976    0.0000 O   0  0  0  0  0  1  0  0  0  0  0  0
    4.8542    0.6902    0.0000 O   0  0  0  0  0  0  0  0  0  0  0  0
    5.1713   -0.7759    0.0000 C   0  0  0  0  0  0  0  0  0  0  0  0
    5.9707   -2.0452    0.0000 C   0  0  0  0  0  0  0  0  0  0  0  0
    6.5601   -0.2091    0.0000 C   0  0  0  0  0  0  0  0  0  0  0  0
    4.0602   -1.7836    0.0000 C   0  0  0  0  0  0  0  0  0  0  0  0
    4.3773   -3.2497    0.0000 O   0  0  0  0  0  0  0  0  0  0  0  0
    2.6320   -1.3252    0.0000 C   0  0  0  0  0  0  0  0  0  0  0  0
    1.5208   -2.3329    0.0000 N   0  0  0  0  0  0  0  0  0  0  0  0
    1.8379   -3.7990    0.0000 C   0  0  0  0  0  0  0  0  0  0  0  0
    2.8456   -4.9101    0.0000 C   0  0  0  0  0  0  0  0  0  0  0  0
    1.3795   -5.2272    0.0000 C   0  0  0  0  0  0  0  0  0  0  0  0
   -5.9374    1.4254    0.0000 C   0  0  0  0  0  0  0  0  0  0  0  0
   -7.0486    0.4177    0.0000 C   0  0  0  0  0  0  0  0  0  0  0  0
  1  2  1  0
  2  3  1  0
  3  4  2  0
  4  5  1  0
  5  6  2  0
  6  7  1  0
  7  8  1  0
  8  9  2  0
  8 10  1  0
 10 11  1  0
 11 12  2  0
 12 13  1  0
 13 14  2  0
 14 15  1  0
 15 16  2  0
 16 17  1  0
 17 18  2  0
 17 19  1  0
 14 20  1  0
 20 21  1  0
 21 22  1  0
 21 23  1  0
 21 24  1  0
 24 25  1  6
 24 26  1  0
 26 27  1  1
 27 28  1  0
 28 29  1  0
 29 30  1  0
  6 31  1  0
 31 32  2  0
 32  3  1  0
 16 11  1  0
 30 28  1  0
 26 13  1  0
M  CHG  2  17   1  19  -1
M  END
> <Identifier>
NIP-142

> <hERG>
0

$$$$

     RDKit          2D

 32 34  0  0  0  0  0  0  0  0999 V2000
    6.1993   -1.8915    0.0000 C   0  0  0  0  0  0  0  0  0  0  0  0
    4.7949   -1.3647    0.0000 C   0  0  0  0  0  0  0  0  0  0  0  0
    3.6365   -2.3177    0.0000 C   0  0  0  0  0  0  0  0  0  0  0  0
    4.5488    0.1149    0.0000 O   0  0  0  0  0  0  0  0  0  0  0  0
    3.1443    0.6417    0.0000 C   0  0  0  0  0  0  0  0  0  0  0  0
    1.9859   -0.3113    0.0000 C   0  0  0  0  0  0  0  0  0  0  0  0
    0.5815    0.2155    0.0000 C   0  0  0  0  0  0  0  0  0  0  0  0
   -0.5770   -0.7374    0.0000 C   0  0  0  0  0  0  0  0  0  0  0  0
   -1.9814   -0.2107    0.0000 C   0  0  0  0  0  0  0  0  0  0  0  0
   -2.2275    1.2690    0.0000 C   0  0  0  0  0  0  0  0  0  0  0  0
   -3.6320    1.7957    0.0000 N   0  0  0  0  0  0  0  0  0  0  0  0
   -4.7904    0.8428    0.0000 C   0  0  0  0  0  0  0  0  0  0  0  0
   -6.1948    1.3695    0.0000 C   0  0  0  0  0  0  0  0  0  0  0  0
   -6.7216   -0.0350    0.0000 C   0  0  0  0  0  0  0  0  0  0  0  0
   -5.6681    2.7740    0.0000 C   0  0  0  0  0  0  0  0  0  0  0  0
   -7.5993    1.8963    0.0000 O   0  0  0  0  0  0  0  0  0  0  0  0
   -4.5443   -0.6369    0.0000 C   0  0  0  0  0  0  0  0  0  0  0  0
   -3.1398   -1.1636    0.0000 C   0  0  0  0  0  0  0  0  0  0  0  0
   -0.3309   -2.2171    0.0000 C   0  0  0  0  0  0  0  0  0  0  0  0
   -1.4893   -3.1701    0.0000 C   0  0  0  0  0  0  0  0  0  0  0  0
   -1.2432   -4.6497    0.0000 C   0  0  0  0  0  0  0  0  0  0  0  0
    0.1612   -5.1765    0.0000 C   0  0  0  0  0  0  0  0  0  0  0  0
    1.3196   -4.2235    0.0000 N   0  0  0  0  0  4  0  0  0  0  0  0
    2.7241   -4.7503    0.0000 O   0  0  0  0  0  1  0  0  0  0  0  0
    1.0736   -2.7439    0.0000 C   0  0  0  0  0  0  0  0  0  0  0  0
    0.3354    1.6952    0.0000 C   0  0  0  0  0  0  0  0  0  0  0  0
    1.4938    2.6481    0.0000 C   0  0  0  0  0  0  0  0  0  0  0  0
    2.8983    2.1214    0.0000 C   0  0  0  0  0  0  0  0  0  0  0  0
    4.0567    3.0743    0.0000 O   0  0  0  0  0  0  0  0  0  0  0  0
    3.8106    4.5540    0.0000 C   0  0  0  0  0  0  0  0  0  0  0  0
    4.9690    5.5069    0.0000 F   0  0  0  0  0  0  0  0  0  0  0  0
    2.4061    5.0807    0.0000 F   0  0  0  0  0  0  0  0  0  0  0  0
  1  2  1  0
  2  3  1  0
  2  4  1  0
  4  5  1  0
  5  6  2  0
  6  7  1  0
  8  7  1  6
  8  9  1  0
  9 10  2  0
 10 11  1  0
 11 12  1  0
 12 13  1  6
 13 14  1  0
 13 15  1  0
 13 16  1  0
 12 17  1  0
 17 18  2  0
  8 19  1  0
 19 20  2  0
 20 21  1  0
 21 22  2  0
 22 23  1  0
 23 24  1  0
 23 25  2  0
  7 26  2  0
 26 27  1  0
 27 28  2  0
 28 29  1  0
 29 30  1  0
 30 31  1  0
 30 32  1  0
 28  5  1  0
 18  9  1  0
 25 19  1  0
M  CHG  2  23   1  24  -1
M  END
> <Identifier>
WOMBAT50

> <hERG>
0

$$$$

     RDKit          2D

 13 15  0  0  0  0  0  0  0  0999 V2000
    4.5855   -0.2593    0.0000 C   0  0  0  0  0  0  0  0  0  0  0  0
    3.0909   -0.1320    0.0000 C   0  0  0  0  0  0  0  0  0  0  0  0
    2.2334   -1.3628    0.0000 C   0  0  0  0  0  0  0  0  0  0  0  0
    0.7388   -1.2355    0.0000 C   0  0  0  0  0  0  0  0  0  0  0  0
    0.1017    0.1224    0.0000 C   0  0  0  0  0  0  0  0  0  0  0  0
   -1.3929    0.2497    0.0000 C   0  0  0  0  0  0  0  0  0  0  0  0
   -1.6757   -1.2234    0.0000 C   0  0  0  0  0  0  0  0  0  0  0  0
   -3.1641   -1.4097    0.0000 N   0  0  0  0  0  0  0  0  0  0  0  0
   -3.8012   -0.0517    0.0000 C   0  0  0  0  0  0  0  0  0  0  0  0
   -2.7065    0.9738    0.0000 C   0  0  0  0  0  0  0  0  0  0  0  0
   -1.4226    1.7494    0.0000 C   0  0  0  0  0  0  0  0  0  0  0  0
    0.9592    1.3532    0.0000 C   0  0  0  0  0  0  0  0  0  0  0  0
    2.4538    1.2259    0.0000 C   0  0  0  0  0  0  0  0  0  0  0  0
  1  2  1  0
  2  3  2  0
  3  4  1  0
  4  5  2  0
  6  5  1  1
  6  7  1  0
  7  8  1  0
  8  9  1  0
 10  9  1  6
 10 11  1  0
  5 12  1  0
 12 13  2  0
 13  2  1  0
 10  6  1  0
 11  6  1  0
M  END
> <Identifier>
BICIFADINE

> <hERG>
0

$$$$

     RDKit          2D

 32 35  0  0  0  0  0  0  0  0999 V2000
   -9.6266    3.8183    0.0000 C   0  0  0  0  0  0  0  0  0  0  0  0
   -8.4800    2.8512    0.0000 C   0  0  0  0  0  0  0  0  0  0  0  0
   -7.0692    3.3606    0.0000 O   0  0  0  0  0  0  0  0  0  0  0  0
   -8.7443    1.3746    0.0000 N   0  0  0  0  0  0  0  0  0  0  0  0
   -7.5977    0.4075    0.0000 C   0  0  0  0  0  0  0  0  0  0  0  0
   -6.1869    0.9169    0.0000 C   0  0  0  0  0  0  0  0  0  0  0  0
   -5.0403   -0.0502    0.0000 C   0  0  0  0  0  0  0  0  0  0  0  0
   -5.3046   -1.5268    0.0000 C   0  0  0  0  0  0  0  0  0  0  0  0
   -4.1580   -2.4939    0.0000 C   0  0  0  0  0  0  0  0  0  0  0  0
   -2.7471   -1.9845    0.0000 N   0  0  0  0  0  0  0  0  0  0  0  0
   -1.6006   -2.9517    0.0000 C   0  0  0  0  0  0  0  0  0  0  0  0
   -0.1897   -2.4423    0.0000 C   0  0  0  0  0  0  0  0  0  0  0  0
    0.0746   -0.9657    0.0000 C   0  0  0  0  0  0  0  0  0  0  0  0
    1.4854   -0.4564    0.0000 N   0  0  0  0  0  0  0  0  0  0  0  0
    2.6320   -1.4235    0.0000 C   0  0  0  0  0  0  0  0  0  0  0  0
    2.3677   -2.9000    0.0000 O   0  0  0  0  0  0  0  0  0  0  0  0
    4.0429   -0.9141    0.0000 C   0  0  0  0  0  0  0  0  0  0  0  0
    5.1894   -1.8812    0.0000 C   0  0  0  0  0  0  0  0  0  0  0  0
    6.6003   -1.3719    0.0000 C   0  0  0  0  0  0  0  0  0  0  0  0
    7.7469   -2.3390    0.0000 O   0  0  0  0  0  0  0  0  0  0  0  0
    6.8646    0.1047    0.0000 C   0  0  0  0  0  0  0  0  0  0  0  0
    8.2754    0.6141    0.0000 C   0  0  0  0  0  0  0  0  0  0  0  0
    8.5397    2.0906    0.0000 C   0  0  0  0  0  0  0  0  0  0  0  0
    7.3932    3.0577    0.0000 C   0  0  0  0  0  0  0  0  0  0  0  0
    7.6574    4.5343    0.0000 F   0  0  0  0  0  0  0  0  0  0  0  0
    5.9823    2.5484    0.0000 C   0  0  0  0  0  0  0  0  0  0  0  0
    5.7180    1.0718    0.0000 C   0  0  0  0  0  0  0  0  0  0  0  0
    4.3072    0.5624    0.0000 O   0  0  0  0  0  0  0  0  0  0  0  0
   -1.0720    0.0014    0.0000 C   0  0  0  0  0  0  0  0  0  0  0  0
   -2.4829   -0.5080    0.0000 C   0  0  0  0  0  0  0  0  0  0  0  0
   -6.7154   -2.0362    0.0000 C   0  0  0  0  0  0  0  0  0  0  0  0
   -7.8620   -1.0690    0.0000 C   0  0  0  0  0  0  0  0  0  0  0  0
  1  2  1  0
  2  3  2  0
  2  4  1  0
  4  5  1  0
  5  6  2  0
  6  7  1  0
  7  8  2  0
  8  9  1  0
  9 10  1  0
 10 11  1  0
 11 12  1  0
 12 13  1  0
 13 14  1  0
 14 15  1  0
 15 16  2  0
 15 17  1  0
 17 18  2  0
 18 19  1  0
 19 20  2  0
 19 21  1  0
 21 22  2  0
 22 23  1  0
 23 24  2  0
 24 25  1  0
 24 26  1  0
 26 27  2  0
 27 28  1  0
 13 29  1  0
 29 30  1  0
  8 31  1  0
 31 32  2  0
 32  5  1  0
 30 10  1  0
 28 17  1  0
 27 21  1  0
M  END
> <Identifier>
JMC20066569-54

> <hERG>
0

$$$$

     RDKit          2D

 19 20  0  0  0  0  0  0  0  0999 V2000
   -2.3118   -4.6651    0.0000 C   0  0  0  0  0  0  0  0  0  0  0  0
   -1.9626   -3.2063    0.0000 C   0  0  0  0  0  0  0  0  0  0  0  0
   -0.5246   -2.7793    0.0000 O   0  0  0  0  0  0  0  0  0  0  0  0
   -0.1755   -1.3205    0.0000 P   0  0  0  0  0  0  0  0  0  0  0  0
    0.1737    0.1383    0.0000 O   0  0  0  0  0  0  0  0  0  0  0  0
    1.2833   -1.6697    0.0000 S   0  0  0  0  0  0  0  0  0  0  0  0
    2.3151   -0.5809    0.0000 C   0  0  0  0  0  0  0  0  0  0  0  0
    3.7739   -0.9301    0.0000 C   0  0  0  0  0  0  0  0  0  0  0  0
    4.8057    0.1587    0.0000 C   0  0  0  0  0  0  0  0  0  0  0  0
    4.3787    1.5966    0.0000 C   0  0  0  0  0  0  0  0  0  0  0  0
    2.9199    1.9458    0.0000 C   0  0  0  0  0  0  0  0  0  0  0  0
    1.8881    0.8570    0.0000 C   0  0  0  0  0  0  0  0  0  0  0  0
   -1.6343   -0.9714    0.0000 S   0  0  0  0  0  0  0  0  0  0  0  0
   -2.0613    0.4666    0.0000 C   0  0  0  0  0  0  0  0  0  0  0  0
   -1.0295    1.5553    0.0000 C   0  0  0  0  0  0  0  0  0  0  0  0
   -1.4565    2.9933    0.0000 C   0  0  0  0  0  0  0  0  0  0  0  0
   -2.9153    3.3425    0.0000 C   0  0  0  0  0  0  0  0  0  0  0  0
   -3.9471    2.2537    0.0000 C   0  0  0  0  0  0  0  0  0  0  0  0
   -3.5201    0.8158    0.0000 C   0  0  0  0  0  0  0  0  0  0  0  0
  1  2  1  0
  2  3  1  0
  3  4  1  0
  4  5  2  0
  4  6  1  0
  6  7  1  0
  7  8  2  0
  8  9  1  0
  9 10  2  0
 10 11  1  0
 11 12  2  0
  4 13  1  0
 13 14  1  0
 14 15  2  0
 15 16  1  0
 16 17  2  0
 17 18  1  0
 18 19  2  0
 12  7  1  0
 19 14  1  0
M  END
> <Identifier>
EDDP

> <hERG>
0

$$$$

     RDKit          2D

 21 21  0  0  0  0  0  0  0  0999 V2000
   -8.2075    0.9997    0.0000 C   0  0  0  0  0  0  0  0  0  0  0  0
   -6.7758    1.4471    0.0000 C   0  0  0  0  0  0  0  0  0  0  0  0
   -5.6724    0.4309    0.0000 N   0  0  0  0  0  4  0  0  0  0  0  0
   -6.0008   -1.0327    0.0000 C   0  0  0  0  0  0  0  0  0  0  0  0
   -7.4326   -1.4801    0.0000 C   0  0  0  0  0  0  0  0  0  0  0  0
   -4.2407    0.8783    0.0000 C   0  0  0  0  0  0  0  0  0  0  0  0
   -3.1374   -0.1379    0.0000 C   0  0  0  0  0  0  0  0  0  0  0  0
   -1.7057    0.3095    0.0000 N   0  0  0  0  0  0  0  0  0  0  0  0
   -0.6023   -0.7067    0.0000 C   0  0  0  0  0  0  0  0  0  0  0  0
   -0.9307   -2.1703    0.0000 O   0  0  0  0  0  0  0  0  0  0  0  0
    0.8294   -0.2593    0.0000 C   0  0  0  0  0  0  0  0  0  0  0  0
    1.1578    1.2043    0.0000 C   0  0  0  0  0  0  0  0  0  0  0  0
    2.5895    1.6517    0.0000 C   0  0  0  0  0  0  0  0  0  0  0  0
    3.6928    0.6355    0.0000 C   0  0  0  0  0  0  0  0  0  0  0  0
    5.1245    1.0829    0.0000 N   0  0  0  0  0  0  0  0  0  0  0  0
    6.2279    0.0667    0.0000 S   0  0  0  0  0  0  0  0  0  0  0  0
    7.3312   -0.9495    0.0000 C   0  0  0  0  0  0  0  0  0  0  0  0
    5.2117   -1.0366    0.0000 O   0  0  0  0  0  0  0  0  0  0  0  0
    7.2441    1.1701    0.0000 O   0  0  0  0  0  0  0  0  0  0  0  0
    3.3644   -0.8281    0.0000 C   0  0  0  0  0  0  0  0  0  0  0  0
    1.9327   -1.2755    0.0000 C   0  0  0  0  0  0  0  0  0  0  0  0
  1  2  1  0
  2  3  1  0
  3  4  1  0
  4  5  1  0
  3  6  1  0
  6  7  1  0
  7  8  1  0
  8  9  1  0
  9 10  2  0
  9 11  1  0
 11 12  2  0
 12 13  1  0
 13 14  2  0
 14 15  1  0
 15 16  1  0
 16 17  1  0
 16 18  2  0
 16 19  2  0
 14 20  1  0
 20 21  2  0
 21 11  1  0
M  CHG  1   3   1
M  END
> <Identifier>
SEMATILIDE

> <hERG>
0

$$$$

     RDKit          2D

 31 34  0  0  0  0  0  0  0  0999 V2000
    1.9600   -3.7767    0.0000 N   0  0  0  0  0  0  0  0  0  0  0  0
    0.5511   -3.2621    0.0000 C   0  0  0  0  0  0  0  0  0  0  0  0
   -0.8579   -2.7476    0.0000 C   0  0  0  0  0  0  0  0  0  0  0  0
   -2.0080   -3.7105    0.0000 C   0  0  0  0  0  0  0  0  0  0  0  0
   -3.4170   -3.1959    0.0000 C   0  0  0  0  0  0  0  0  0  0  0  0
   -3.6759   -1.7185    0.0000 C   0  0  0  0  0  0  0  0  0  0  0  0
   -5.0849   -1.2039    0.0000 C   0  0  0  0  0  0  0  0  0  0  0  0
   -5.3438    0.2736    0.0000 N   0  0  0  0  0  0  0  0  0  0  0  0
   -6.6912    0.9326    0.0000 C   0  0  0  0  0  0  0  0  0  0  0  0
   -6.4809    2.4178    0.0000 N   0  0  0  0  0  0  0  0  0  0  0  0
   -5.0034    2.6767    0.0000 C   0  0  0  0  0  0  0  0  0  0  0  0
   -4.3006    1.3515    0.0000 C   0  0  0  0  0  0  0  0  0  0  0  0
   -2.8154    1.1411    0.0000 C   0  0  0  0  0  0  0  0  0  0  0  0
   -1.8907    2.3221    0.0000 N   0  0  0  0  0  4  0  0  0  0  0  0
   -0.4055    2.1118    0.0000 C   0  0  0  0  0  0  0  0  0  0  0  0
    0.6377    3.1896    0.0000 C   0  0  0  0  0  0  0  0  0  0  0  0
    1.9852    2.5306    0.0000 C   0  0  0  0  0  0  0  0  0  0  0  0
    1.7748    1.0455    0.0000 N   0  0  0  0  0  0  0  0  0  0  0  0
    2.8527    0.0023    0.0000 C   0  0  0  0  0  0  0  0  0  0  0  0
    2.4882   -1.4527    0.0000 O   0  0  0  0  0  0  0  0  0  0  0  0
    4.2950    0.4142    0.0000 C   0  0  0  0  0  0  0  0  0  0  0  0
    4.6595    1.8693    0.0000 C   0  0  0  0  0  0  0  0  0  0  0  0
    6.1018    2.2811    0.0000 C   0  0  0  0  0  0  0  0  0  0  0  0
    7.1797    1.2380    0.0000 C   0  0  0  0  0  0  0  0  0  0  0  0
    6.8152   -0.2171    0.0000 N   0  0  0  0  0  0  0  0  0  0  0  0
    5.3729   -0.6290    0.0000 C   0  0  0  0  0  0  0  0  0  0  0  0
    5.0084   -2.0840    0.0000 O   0  0  0  0  0  1  0  0  0  0  0  0
    0.2973    0.7866    0.0000 C   0  0  0  0  0  0  0  0  0  0  0  0
   -0.3617   -0.5609    0.0000 O   0  0  0  0  0  0  0  0  0  0  0  0
   -2.5258   -0.7555    0.0000 C   0  0  0  0  0  0  0  0  0  0  0  0
   -1.1168   -1.2701    0.0000 C   0  0  0  0  0  0  0  0  0  0  0  0
  1  2  3  0
  2  3  1  0
  3  4  2  0
  4  5  1  0
  5  6  2  0
  6  7  1  0
  7  8  1  0
  8  9  1  0
  9 10  2  0
 10 11  1  0
 11 12  2  0
 12 13  1  0
 13 14  1  0
 15 14  1  1
 15 16  1  0
 16 17  1  0
 17 18  1  0
 18 19  1  0
 19 20  2  0
 19 21  1  0
 21 22  2  0
 22 23  1  0
 23 24  2  0
 24 25  1  0
 25 26  2  0
 26 27  1  0
 18 28  1  0
 28 29  2  0
  6 30  1  0
 30 31  2  0
 31  3  1  0
 12  8  1  0
 28 15  1  0
 26 21  1  0
M  CHG  2  14   1  27  -1
M  END
> <Identifier>
WOMBAT23

> <hERG>
0

$$$$

     RDKit          2D

 31 34  0  0  0  0  0  0  0  0999 V2000
    1.9600   -3.7767    0.0000 N   0  0  0  0  0  0  0  0  0  0  0  0
    0.5511   -3.2621    0.0000 C   0  0  0  0  0  0  0  0  0  0  0  0
   -0.8579   -2.7476    0.0000 C   0  0  0  0  0  0  0  0  0  0  0  0
   -2.0080   -3.7105    0.0000 C   0  0  0  0  0  0  0  0  0  0  0  0
   -3.4170   -3.1959    0.0000 C   0  0  0  0  0  0  0  0  0  0  0  0
   -3.6759   -1.7185    0.0000 C   0  0  0  0  0  0  0  0  0  0  0  0
   -5.0849   -1.2039    0.0000 C   0  0  0  0  0  0  0  0  0  0  0  0
   -5.3438    0.2736    0.0000 N   0  0  0  0  0  0  0  0  0  0  0  0
   -6.6912    0.9326    0.0000 C   0  0  0  0  0  0  0  0  0  0  0  0
   -6.4809    2.4178    0.0000 N   0  0  0  0  0  0  0  0  0  0  0  0
   -5.0034    2.6767    0.0000 C   0  0  0  0  0  0  0  0  0  0  0  0
   -4.3006    1.3515    0.0000 C   0  0  0  0  0  0  0  0  0  0  0  0
   -2.8154    1.1411    0.0000 C   0  0  0  0  0  0  0  0  0  0  0  0
   -1.8907    2.3221    0.0000 N   0  0  0  0  0  4  0  0  0  0  0  0
   -0.4055    2.1118    0.0000 C   0  0  0  0  0  0  0  0  0  0  0  0
    0.6377    3.1896    0.0000 C   0  0  0  0  0  0  0  0  0  0  0  0
    1.9852    2.5306    0.0000 C   0  0  0  0  0  0  0  0  0  0  0  0
    1.7748    1.0455    0.0000 N   0  0  0  0  0  0  0  0  0  0  0  0
    2.8527    0.0023    0.0000 C   0  0  0  0  0  0  0  0  0  0  0  0
    2.4882   -1.4527    0.0000 O   0  0  0  0  0  0  0  0  0  0  0  0
    4.2950    0.4142    0.0000 C   0  0  0  0  0  0  0  0  0  0  0  0
    4.6595    1.8693    0.0000 C   0  0  0  0  0  0  0  0  0  0  0  0
    6.1018    2.2811    0.0000 C   0  0  0  0  0  0  0  0  0  0  0  0
    7.1797    1.2380    0.0000 C   0  0  0  0  0  0  0  0  0  0  0  0
    6.8152   -0.2171    0.0000 N   0  0  0  0  0  0  0  0  0  0  0  0
    5.3729   -0.6290    0.0000 C   0  0  0  0  0  0  0  0  0  0  0  0
    5.0084   -2.0840    0.0000 N   0  0  0  0  0  0  0  0  0  0  0  0
    0.2973    0.7866    0.0000 C   0  0  0  0  0  0  0  0  0  0  0  0
   -0.3617   -0.5609    0.0000 O   0  0  0  0  0  0  0  0  0  0  0  0
   -2.5258   -0.7555    0.0000 C   0  0  0  0  0  0  0  0  0  0  0  0
   -1.1168   -1.2701    0.0000 C   0  0  0  0  0  0  0  0  0  0  0  0
  1  2  3  0
  2  3  1  0
  3  4  2  0
  4  5  1  0
  5  6  2  0
  6  7  1  0
  7  8  1  0
  8  9  1  0
  9 10  2  0
 10 11  1  0
 11 12  2  0
 12 13  1  0
 13 14  1  0
 15 14  1  6
 15 16  1  0
 16 17  1  0
 17 18  1  0
 18 19  1  0
 19 20  2  0
 19 21  1  0
 21 22  2  0
 22 23  1  0
 23 24  2  0
 24 25  1  0
 25 26  2  0
 26 27  1  0
 18 28  1  0
 28 29  2  0
  6 30  1  0
 30 31  2  0
 31  3  1  0
 12  8  1  0
 28 15  1  0
 26 21  1  0
M  CHG  1  14   1
M  END
> <Identifier>
WOMBAT24

> <hERG>
0

$$$$

     RDKit          2D

 23 26  0  0  0  0  0  0  0  0999 V2000
   -4.6961   -1.2244    0.0000 C   0  0  0  0  0  0  0  0  0  0  0  0
   -4.0503    0.1295    0.0000 C   0  0  0  0  0  0  0  0  0  0  0  0
   -4.7659    1.4477    0.0000 N   0  0  0  0  0  0  0  0  0  0  0  0
   -3.7333    2.5357    0.0000 N   0  0  0  0  0  0  0  0  0  0  0  0
   -2.3795    1.8899    0.0000 C   0  0  0  0  0  0  0  0  0  0  0  0
   -2.5754    0.4027    0.0000 N   0  0  0  0  0  0  0  0  0  0  0  0
   -1.5348   -0.6777    0.0000 C   0  0  0  0  0  0  0  0  0  0  0  0
   -2.1603   -2.0410    0.0000 C   0  0  0  0  0  0  0  0  0  0  0  0
   -1.2924   -3.2644    0.0000 C   0  0  0  0  0  0  0  0  0  0  0  0
    0.2011   -3.1244    0.0000 C   0  0  0  0  0  0  0  0  0  0  0  0
    1.0690   -4.3478    0.0000 Cl  0  0  0  0  0  0  0  0  0  0  0  0
    0.8266   -1.7611    0.0000 C   0  0  0  0  0  0  0  0  0  0  0  0
   -0.0413   -0.5377    0.0000 C   0  0  0  0  0  0  0  0  0  0  0  0
    0.7804    0.7172    0.0000 C   0  0  0  0  0  0  0  0  0  0  0  0
    2.2676    0.5213    0.0000 C   0  0  0  0  0  0  0  0  0  0  0  0
    2.8415   -0.8645    0.0000 C   0  0  0  0  0  0  0  0  0  0  0  0
    4.3287   -1.0604    0.0000 C   0  0  0  0  0  0  0  0  0  0  0  0
    5.2419    0.1296    0.0000 C   0  0  0  0  0  0  0  0  0  0  0  0
    4.6679    1.5154    0.0000 C   0  0  0  0  0  0  0  0  0  0  0  0
    3.1808    1.7113    0.0000 C   0  0  0  0  0  0  0  0  0  0  0  0
    2.6068    3.0971    0.0000 Cl  0  0  0  0  0  0  0  0  0  0  0  0
    0.3116    2.1421    0.0000 N   0  0  0  0  0  0  0  0  0  0  0  0
   -1.0947    2.6640    0.0000 C   0  0  0  0  0  0  0  0  0  0  0  0
  1  2  1  0
  2  3  2  0
  3  4  1  0
  4  5  2  0
  5  6  1  0
  6  7  1  0
  7  8  2  0
  8  9  1  0
  9 10  2  0
 10 11  1  0
 10 12  1  0
 12 13  2  0
 13 14  1  0
 14 15  1  0
 15 16  2  0
 16 17  1  0
 17 18  2  0
 18 19  1  0
 19 20  2  0
 20 21  1  0
 14 22  2  0
 22 23  1  0
  6  2  1  0
 13  7  1  0
 20 15  1  0
 23  5  1  0
M  END
> <Identifier>
TRIAZOLAM

> <hERG>
0

$$$$

     RDKit          2D

 27 29  0  0  0  0  0  0  0  0999 V2000
   -5.0643    1.5956    0.0000 C   0  0  0  0  0  0  0  0  0  0  0  0
   -3.6374    2.0581    0.0000 O   0  0  0  0  0  0  0  0  0  0  0  0
   -2.5234    1.0536    0.0000 C   0  0  0  0  0  0  0  0  0  0  0  0
   -2.9123    0.2578    0.0000 O   0  0  0  0  0  0  0  0  0  0  0  0
   -1.0965    1.5161    0.0000 C   0  0  0  0  0  0  0  0  0  0  0  0
   -0.7836    2.9831    0.0000 C   0  0  0  0  0  0  0  0  0  0  0  0
   -1.8976    3.9876    0.0000 C   0  0  0  0  0  0  0  0  0  0  0  0
    0.6433    3.4457    0.0000 N   0  0  0  0  0  0  0  0  0  0  0  0
    1.7574    2.4412    0.0000 C   0  0  0  0  0  0  0  0  0  0  0  0
    3.1843    2.9037    0.0000 C   0  0  0  0  0  0  0  0  0  0  0  0
    1.4445    0.9742    0.0000 C   0  0  0  0  0  0  0  0  0  0  0  0
    2.5585   -0.0303    0.0000 C   0  0  0  0  0  0  0  0  0  0  0  0
    2.2456   -1.4973    0.0000 O   0  0  0  0  0  0  0  0  0  0  0  0
    3.9854    0.4322    0.0000 O   0  0  0  0  0  0  0  0  0  0  0  0
    5.0994   -0.5723    0.0000 C   0  0  0  0  0  0  0  0  0  0  0  0
    6.5263   -0.1098    0.0000 C   0  0  0  0  0  0  0  0  0  0  0  0
    4.7865   -2.0393    0.0000 C   0  0  0  0  0  0  0  0  0  0  0  0
    0.0175    0.5116    0.0000 C   0  0  0  0  0  0  0  0  0  0  0  0
   -0.2954   -0.9554    0.0000 C   0  0  0  0  0  0  0  0  0  0  0  0
    0.8186   -1.9598    0.0000 C   0  0  0  0  0  0  0  0  0  0  0  0
    0.5057   -3.4268    0.0000 C   0  0  0  0  0  0  0  0  0  0  0  0
   -0.9212   -3.8894    0.0000 C   0  0  0  0  0  0  0  0  0  0  0  0
   -2.0352   -2.8849    0.0000 C   0  0  0  0  0  0  0  0  0  0  0  0
   -3.5271   -3.0406    0.0000 N   0  0  0  0  0  0  0  0  0  0  0  0
   -4.1362   -1.6699    0.0000 O   0  0  0  0  0  0  0  0  0  0  0  0
   -3.0208   -0.6670    0.0000 N   0  0  0  0  0  0  0  0  0  0  0  0
   -1.7223   -1.4179    0.0000 C   0  0  0  0  0  0  0  0  0  0  0  0
  1  2  1  0
  2  3  1  0
  3  4  2  0
  3  5  1  0
  5  6  2  0
  6  7  1  0
  6  8  1  0
  8  9  1  0
  9 10  1  0
  9 11  2  0
 11 12  1  0
 12 13  2  0
 12 14  1  0
 14 15  1  0
 15 16  1  0
 15 17  1  0
 11 18  1  0
 18 19  1  1
 19 20  2  0
 20 21  1  0
 21 22  2  0
 22 23  1  0
 23 24  2  0
 24 25  1  0
 25 26  1  0
 26 27  2  0
 18  5  1  0
 27 19  1  0
 27 23  1  0
M  END
> <Identifier>
ISRADIPINE

> <hERG>
0

$$$$

     RDKit          2D

 36 41  0  0  0  0  0  0  0  0999 V2000
   -8.5915    4.9868    0.0000 C   0  0  0  0  0  0  0  0  0  0  0  0
   -8.3476    3.5068    0.0000 N   0  0  0  0  0  0  0  0  0  0  0  0
   -6.9439    2.9780    0.0000 C   0  0  0  0  0  0  0  0  0  0  0  0
   -6.7000    1.4980    0.0000 C   0  0  0  0  0  0  0  0  0  0  0  0
   -7.8598    0.5467    0.0000 N   0  0  0  0  0  0  0  0  0  0  0  0
   -7.6159   -0.9333    0.0000 C   0  0  0  0  0  0  0  0  0  0  0  0
   -6.2123   -1.4621    0.0000 C   0  0  0  0  0  0  0  0  0  0  0  0
   -5.9684   -2.9422    0.0000 C   0  0  0  0  0  0  0  0  0  0  0  0
   -4.5647   -3.4710    0.0000 C   0  0  0  0  0  0  0  0  0  0  0  0
   -3.4049   -2.5198    0.0000 C   0  0  0  0  0  0  0  0  0  0  0  0
   -3.6487   -1.0397    0.0000 C   0  0  0  0  0  0  0  0  0  0  0  0
   -5.0524   -0.5109    0.0000 C   0  0  0  0  0  0  0  0  0  0  0  0
   -2.3165   -0.3504    0.0000 C   0  0  0  0  0  0  0  0  0  0  0  0
   -1.2493   -1.4044    0.0000 C   0  0  0  0  0  0  0  0  0  0  0  0
    0.2337   -1.6299    0.0000 C   0  0  0  0  0  0  0  0  0  0  0  0
    1.2877   -0.5626    0.0000 C   0  0  0  0  0  0  0  0  0  0  0  0
    1.0439    0.9174    0.0000 C   0  0  0  0  0  0  0  0  0  0  0  0
    2.3761    1.6067    0.0000 S   0  0  0  0  0  0  0  0  0  0  0  0
    3.4433    0.5527    0.0000 C   0  0  0  0  0  0  0  0  0  0  0  0
    4.9234    0.7966    0.0000 C   0  0  0  0  0  0  0  0  0  0  0  0
    6.4034    1.0405    0.0000 C   0  0  0  0  0  0  0  0  0  0  0  0
    7.8835    1.2844    0.0000 C   0  0  0  0  0  0  0  0  0  0  0  0
    8.8347    0.1245    0.0000 O   0  0  0  0  0  0  0  0  0  0  0  0
   10.3147    0.3684    0.0000 C   0  0  0  0  0  0  0  0  0  0  0  0
   11.2660   -0.7914    0.0000 C   0  0  0  0  0  0  0  0  0  0  0  0
   12.7460   -0.5475    0.0000 C   0  0  0  0  0  0  0  0  0  0  0  0
   13.2748    0.8562    0.0000 C   0  0  0  0  0  0  0  0  0  0  0  0
   12.3236    2.0160    0.0000 C   0  0  0  0  0  0  0  0  0  0  0  0
   10.8436    1.7721    0.0000 C   0  0  0  0  0  0  0  0  0  0  0  0
    2.7707   -0.7880    0.0000 C   0  0  0  0  0  0  0  0  0  0  0  0
    0.4776   -3.1099    0.0000 N   0  0  0  0  0  0  0  0  0  0  0  0
   -0.8546   -3.7992    0.0000 N   0  0  0  0  0  0  0  0  0  0  0  0
   -1.9219   -2.7452    0.0000 C   0  0  0  0  0  0  0  0  0  0  0  0
   -9.2635    1.0755    0.0000 C   0  0  0  0  0  0  0  0  0  0  0  0
  -10.4233    0.1243    0.0000 O   0  0  0  0  0  0  0  0  0  0  0  0
   -9.5074    2.5556    0.0000 C   0  0  0  0  0  0  0  0  0  0  0  0
  1  2  1  0
  2  3  1  0
  3  4  1  0
  4  5  1  0
  5  6  1  0
  6  7  1  0
  7  8  2  0
  8  9  1  0
  9 10  2  0
 10 11  1  0
 11 12  2  0
 11 13  1  0
 13 14  1  0
 14 15  1  0
 15 16  1  0
 16 17  2  0
 17 18  1  0
 18 19  1  0
 19 20  1  0
 20 21  3  0
 21 22  1  0
 22 23  1  0
 23 24  1  0
 24 25  2  0
 25 26  1  0
 26 27  2  0
 27 28  1  0
 28 29  2  0
 19 30  2  0
 15 31  2  0
 31 32  1  0
 32 33  1  0
  5 34  1  0
 34 35  2  0
 34 36  1  0
 36  2  1  0
 12  7  1  0
 33 14  2  0
 33 10  1  0
 30 16  1  0
 29 24  1  0
M  END
> <Identifier>
1,4-DIHYDROINDENO[1,2-C]PYRAZOL_77

> <hERG>
0

$$$$

     RDKit          2D

 32 34  0  0  0  0  0  0  0  0999 V2000
    6.1539   -2.1955    0.0000 C   0  0  0  0  0  0  0  0  0  0  0  0
    4.7826   -1.5875    0.0000 C   0  0  0  0  0  0  0  0  0  0  0  0
    3.5705   -2.4711    0.0000 C   0  0  0  0  0  0  0  0  0  0  0  0
    4.6235   -0.0960    0.0000 O   0  0  0  0  0  0  0  0  0  0  0  0
    3.2522    0.5120    0.0000 C   0  0  0  0  0  0  0  0  0  0  0  0
    2.0401   -0.3716    0.0000 C   0  0  0  0  0  0  0  0  0  0  0  0
    0.6688    0.2363    0.0000 C   0  0  0  0  0  0  0  0  0  0  0  0
   -0.5433   -0.6472    0.0000 C   0  0  0  0  0  0  0  0  0  0  0  0
   -0.3842   -2.1388    0.0000 C   0  0  0  0  0  0  0  0  0  0  0  0
   -1.5963   -3.0223    0.0000 C   0  0  0  0  0  0  0  0  0  0  0  0
   -1.4372   -4.5139    0.0000 C   0  0  0  0  0  0  0  0  0  0  0  0
   -0.0659   -5.1218    0.0000 C   0  0  0  0  0  0  0  0  0  0  0  0
    0.0932   -6.6134    0.0000 O   0  0  0  0  0  0  0  0  0  0  0  0
    1.1462   -4.2383    0.0000 N   0  0  0  0  0  0  0  0  0  0  0  0
    0.9871   -2.7467    0.0000 C   0  0  0  0  0  0  0  0  0  0  0  0
   -1.9146   -0.0393    0.0000 C   0  0  0  0  0  0  0  0  0  0  0  0
   -2.0737    1.4523    0.0000 C   0  0  0  0  0  0  0  0  0  0  0  0
   -3.4450    2.0602    0.0000 N   0  0  0  0  0  0  0  0  0  0  0  0
   -4.6571    1.1766    0.0000 C   0  0  0  0  0  0  0  0  0  0  0  0
   -6.0284    1.7846    0.0000 C   0  0  0  0  0  0  0  0  0  0  0  0
   -6.6364    0.4133    0.0000 C   0  0  0  0  0  0  0  0  0  0  0  0
   -5.4205    3.1559    0.0000 C   0  0  0  0  0  0  0  0  0  0  0  0
   -7.3997    2.3926    0.0000 O   0  0  0  0  0  0  0  0  0  0  0  0
   -4.4980   -0.3149    0.0000 C   0  0  0  0  0  0  0  0  0  0  0  0
   -3.1267   -0.9228    0.0000 C   0  0  0  0  0  0  0  0  0  0  0  0
    0.5097    1.7279    0.0000 C   0  0  0  0  0  0  0  0  0  0  0  0
    1.7218    2.6115    0.0000 C   0  0  0  0  0  0  0  0  0  0  0  0
    3.0931    2.0035    0.0000 C   0  0  0  0  0  0  0  0  0  0  0  0
    4.3052    2.8871    0.0000 O   0  0  0  0  0  0  0  0  0  0  0  0
    4.1461    4.3786    0.0000 C   0  0  0  0  0  0  0  0  0  0  0  0
    5.3583    5.2622    0.0000 F   0  0  0  0  0  0  0  0  0  0  0  0
    2.7748    4.9866    0.0000 F   0  0  0  0  0  0  0  0  0  0  0  0
  1  2  1  0
  2  3  1  0
  2  4  1  0
  4  5  1  0
  5  6  2  0
  6  7  1  0
  8  7  1  1
  8  9  1  0
  9 10  2  0
 10 11  1  0
 11 12  1  0
 12 13  2  0
 12 14  1  0
 14 15  2  0
  8 16  1  0
 16 17  2  0
 17 18  1  0
 18 19  1  0
 19 20  1  6
 20 21  1  0
 20 22  1  0
 20 23  1  0
 19 24  1  0
 24 25  2  0
  7 26  2  0
 26 27  1  0
 27 28  2  0
 28 29  1  0
 29 30  1  0
 30 31  1  0
 30 32  1  0
 28  5  1  0
 15  9  1  0
 25 16  1  0
M  END
> <Identifier>
WOMBAT49

> <hERG>
0

$$$$

     RDKit          2D

 32 34  0  0  0  0  0  0  0  0999 V2000
    3.6983   -4.4635    0.0000 C   0  0  0  0  0  0  0  0  0  0  0  0
    2.4930   -3.5705    0.0000 C   0  0  0  0  0  0  0  0  0  0  0  0
    1.2877   -2.6776    0.0000 C   0  0  0  0  0  0  0  0  0  0  0  0
    1.6001   -4.7758    0.0000 C   0  0  0  0  0  0  0  0  0  0  0  0
    3.3859   -2.3653    0.0000 O   0  0  0  0  0  0  0  0  0  0  0  0
    2.7886   -0.9893    0.0000 C   0  0  0  0  0  0  0  0  0  0  0  0
    1.2983   -0.8187    0.0000 C   0  0  0  0  0  0  0  0  0  0  0  0
    0.7010    0.5572    0.0000 C   0  0  0  0  0  0  0  0  0  0  0  0
   -0.7893    0.7279    0.0000 C   0  0  0  0  0  0  0  0  0  0  0  0
   -1.6822   -0.4774    0.0000 C   0  0  0  0  0  0  0  0  0  0  0  0
   -1.2320   -1.9082    0.0000 C   0  0  0  0  0  0  0  0  0  0  0  0
   -2.4536   -2.7786    0.0000 N   0  0  0  0  0  0  0  0  0  0  0  0
   -3.6589   -1.8857    0.0000 C   0  0  0  0  0  0  0  0  0  0  0  0
   -5.0898   -2.3359    0.0000 C   0  0  0  0  0  0  0  0  0  0  0  0
   -4.6395   -3.7667    0.0000 C   0  0  0  0  0  0  0  0  0  0  0  0
   -5.5400   -0.9051    0.0000 C   0  0  0  0  0  0  0  0  0  0  0  0
   -6.5206   -2.7862    0.0000 O   0  0  0  0  0  0  0  0  0  0  0  0
   -3.1822   -0.4634    0.0000 S   0  0  0  0  0  0  0  0  0  0  0  0
   -1.3867    2.1038    0.0000 C   0  0  0  0  0  0  0  0  0  0  0  0
   -0.4937    3.3091    0.0000 C   0  0  0  0  0  0  0  0  0  0  0  0
   -1.0911    4.6850    0.0000 C   0  0  0  0  0  0  0  0  0  0  0  0
   -2.5813    4.8557    0.0000 N   0  0  0  0  0  4  0  0  0  0  0  0
   -3.1787    6.2316    0.0000 O   0  0  0  0  0  1  0  0  0  0  0  0
   -3.4743    3.6504    0.0000 C   0  0  0  0  0  0  0  0  0  0  0  0
   -2.8769    2.2745    0.0000 C   0  0  0  0  0  0  0  0  0  0  0  0
    1.5939    1.7625    0.0000 C   0  0  0  0  0  0  0  0  0  0  0  0
    3.0841    1.5919    0.0000 C   0  0  0  0  0  0  0  0  0  0  0  0
    3.6815    0.2159    0.0000 C   0  0  0  0  0  0  0  0  0  0  0  0
    5.1717    0.0453    0.0000 O   0  0  0  0  0  0  0  0  0  0  0  0
    6.0647    1.2506    0.0000 C   0  0  0  0  0  0  0  0  0  0  0  0
    7.5549    1.0799    0.0000 F   0  0  0  0  0  0  0  0  0  0  0  0
    5.4673    2.6265    0.0000 F   0  0  0  0  0  0  0  0  0  0  0  0
  1  2  1  0
  2  3  1  0
  2  4  1  0
  2  5  1  0
  5  6  1  0
  6  7  2  0
  7  8  1  0
  9  8  1  6
  9 10  1  0
 10 11  2  0
 11 12  1  0
 12 13  1  0
 13 14  1  6
 14 15  1  0
 14 16  1  0
 14 17  1  0
 13 18  1  0
  9 19  1  0
 19 20  2  0
 20 21  1  0
 21 22  2  0
 22 23  1  0
 22 24  1  0
 24 25  2  0
  8 26  2  0
 26 27  1  0
 27 28  2  0
 28 29  1  0
 29 30  1  0
 30 31  1  0
 30 32  1  0
 28  6  1  0
 18 10  1  0
 25 19  1  0
M  CHG  2  22   1  23  -1
M  END
> <Identifier>
WOMBAT12

> <hERG>
0

$$$$

     RDKit          2D

 52 54  0  0  0  0  0  0  0  0999 V2000
   -5.6690   -4.0811    0.0000 C   0  0  0  0  0  0  0  0  0  0  0  0
   -4.3470   -4.7898    0.0000 C   0  0  0  0  0  0  0  0  0  0  0  0
   -3.0722   -3.9993    0.0000 C   0  0  0  0  0  0  0  0  0  0  0  0
   -3.5593   -2.5806    0.0000 O   0  0  0  0  0  0  0  0  0  0  0  0
   -3.3826   -1.0910    0.0000 C   0  0  0  0  0  0  0  0  0  0  0  0
   -4.7955   -0.5873    0.0000 O   0  0  0  0  0  0  0  0  0  0  0  0
   -2.5771    0.1744    0.0000 C   0  0  0  0  0  0  0  0  0  0  0  0
   -3.7302    0.8764    0.0000 C   0  0  0  0  0  0  0  0  0  0  0  0
   -1.3023    0.9649    0.0000 C   0  0  0  0  0  0  0  0  0  0  0  0
   -1.7894    2.3836    0.0000 O   0  0  0  0  0  0  0  0  0  0  0  0
   -3.2616    2.6712    0.0000 C   0  0  0  0  0  0  0  0  0  0  0  0
   -3.7486    4.0899    0.0000 C   0  0  0  0  0  0  0  0  0  0  0  0
   -5.2208    4.3774    0.0000 C   0  0  0  0  0  0  0  0  0  0  0  0
   -6.5059    5.1511    0.0000 C   0  0  0  0  0  0  0  0  0  0  0  0
   -4.6820    5.7773    0.0000 O   0  0  0  0  0  0  0  0  0  0  0  0
   -5.6249    6.9439    0.0000 C   0  0  0  0  0  0  0  0  0  0  0  0
   -6.2059    3.2462    0.0000 C   0  0  0  0  0  0  0  0  0  0  0  0
   -7.6781    3.5338    0.0000 O   0  0  0  0  0  0  0  0  0  0  0  0
   -5.7189    1.8275    0.0000 C   0  0  0  0  0  0  0  0  0  0  0  0
   -6.7040    0.6963    0.0000 C   0  0  0  0  0  0  0  0  0  0  0  0
   -4.2467    1.5400    0.0000 O   0  0  0  0  0  0  0  0  0  0  0  0
    0.1892    1.1241    0.0000 C   0  0  0  0  0  0  0  0  0  0  0  0
    0.3659    2.6136    0.0000 C   0  0  0  0  0  0  0  0  0  0  0  0
    1.6021    0.6203    0.0000 C   0  0  0  0  0  0  0  0  0  0  0  0
    2.4076    1.8857    0.0000 O   0  0  0  0  0  0  0  0  0  0  0  0
    3.9062    1.8208    0.0000 C   0  0  0  0  0  0  0  0  0  0  0  0
    4.5993    0.4905    0.0000 O   0  0  0  0  0  0  0  0  0  0  0  0
    6.0979    0.4256    0.0000 C   0  0  0  0  0  0  0  0  0  0  0  0
    6.7910   -0.9047    0.0000 C   0  0  0  0  0  0  0  0  0  0  0  0
    6.9034    1.6910    0.0000 C   0  0  0  0  0  0  0  0  0  0  0  0
    6.2103    3.0212    0.0000 C   0  0  0  0  0  0  0  0  0  0  0  0
    7.0158    4.2866    0.0000 N   0  0  0  0  0  4  0  0  0  0  0  0
    8.5144    4.2217    0.0000 C   0  0  0  0  0  0  0  0  0  0  0  0
    6.3227    5.6169    0.0000 C   0  0  0  0  0  0  0  0  0  0  0  0
    4.7117    3.0862    0.0000 C   0  0  0  0  0  0  0  0  0  0  0  0
    4.0186    4.4164    0.0000 O   0  0  0  0  0  0  0  0  0  0  0  0
    2.6565   -0.4466    0.0000 C   0  0  0  0  0  0  0  0  0  0  0  0
    3.2644    0.9247    0.0000 C   0  0  0  0  0  0  0  0  0  0  0  0
    4.1551   -0.5115    0.0000 O   0  0  0  0  0  0  0  0  0  0  0  0
    4.7332    0.0374    0.0000 C   0  0  0  0  0  0  0  0  0  0  0  0
    3.1436   -1.8653    0.0000 C   0  0  0  0  0  0  0  0  0  0  0  0
    2.9669   -3.3548    0.0000 C   0  0  0  0  0  0  0  0  0  0  0  0
    4.3797   -3.8586    0.0000 C   0  0  0  0  0  0  0  0  0  0  0  0
    2.1614   -4.6202    0.0000 C   0  0  0  0  0  0  0  0  0  0  0  0
    3.2157   -5.6871    0.0000 O   0  0  0  0  0  0  0  0  0  0  0  0
    0.8866   -5.4107    0.0000 C   0  0  0  0  0  0  0  0  0  0  0  0
    1.3737   -6.8295    0.0000 C   0  0  0  0  0  0  0  0  0  0  0  0
   -0.6049   -5.5699    0.0000 C   0  0  0  0  0  0  0  0  0  0  0  0
   -0.7817   -7.0595    0.0000 O   0  0  0  0  0  0  0  0  0  0  0  0
   -2.0178   -5.0662    0.0000 C   0  0  0  0  0  0  0  0  0  0  0  0
   -1.9706   -6.5654    0.0000 C   0  0  0  0  0  0  0  0  0  0  0  0
   -3.3962   -5.6579    0.0000 O   0  0  0  0  0  0  0  0  0  0  0  0
  1  2  1  0
  3  2  1  6
  3  4  1  0
  4  5  1  0
  5  6  2  0
  5  7  1  0
  7  8  1  1
  7  9  1  0
  9 10  1  6
 11 10  1  6
 11 12  1  0
 12 13  1  0
 13 14  1  1
 13 15  1  0
 15 16  1  0
 13 17  1  0
 17 18  1  6
 17 19  1  0
 19 20  1  1
 19 21  1  0
  9 22  1  0
 22 23  1  6
 22 24  1  0
 24 25  1  1
 26 25  1  1
 26 27  1  0
 27 28  1  0
 28 29  1  1
 28 30  1  0
 30 31  1  0
 31 32  1  6
 32 33  1  0
 32 34  1  0
 31 35  1  0
 35 36  1  1
 24 37  1  0
 37 38  1  6
 37 39  1  0
 39 40  1  0
 37 41  1  0
 41 42  1  0
 42 43  1  1
 42 44  1  0
 44 45  2  0
 44 46  1  0
 46 47  1  1
 46 48  1  0
 48 49  1  1
 48 50  1  0
 50 51  1  1
 50 52  1  0
 50  3  1  0
 21 11  1  0
 35 26  1  0
M  CHG  1  32   1
M  END
> <Identifier>
CLARITHROMYCIN

> <hERG>
0

$$$$

     RDKit          2D

 38 40  0  0  0  0  0  0  0  0999 V2000
    3.5924   -4.9120    0.0000 C   0  0  0  0  0  0  0  0  0  0  0  0
    2.5900   -3.7962    0.0000 C   0  0  0  0  0  0  0  0  0  0  0  0
    1.5875   -2.6803    0.0000 C   0  0  0  0  0  0  0  0  0  0  0  0
    1.4741   -4.7986    0.0000 C   0  0  0  0  0  0  0  0  0  0  0  0
    3.7058   -2.7937    0.0000 O   0  0  0  0  0  0  0  0  0  0  0  0
    3.3956   -1.3262    0.0000 C   0  0  0  0  0  0  0  0  0  0  0  0
    1.9696   -0.8610    0.0000 C   0  0  0  0  0  0  0  0  0  0  0  0
    1.6594    0.6066    0.0000 C   0  0  0  0  0  0  0  0  0  0  0  0
    0.2333    1.0717    0.0000 C   0  0  0  0  0  0  0  0  0  0  0  0
   -0.8825    0.0693    0.0000 C   0  0  0  0  0  0  0  0  0  0  0  0
   -0.7275   -1.4227    0.0000 C   0  0  0  0  0  0  0  0  0  0  0  0
   -2.0985   -2.0312    0.0000 N   0  0  0  0  0  0  0  0  0  0  0  0
   -3.1009   -0.9154    0.0000 C   0  0  0  0  0  0  0  0  0  0  0  0
   -4.5929   -1.0705    0.0000 C   0  0  0  0  0  0  0  0  0  0  0  0
   -6.0848   -1.2256    0.0000 O   0  0  0  0  0  0  0  0  0  0  0  0
   -4.4378   -2.5624    0.0000 C   0  0  0  0  0  0  0  0  0  0  0  0
   -4.2827   -4.0544    0.0000 F   0  0  0  0  0  0  0  0  0  0  0  0
   -5.9297   -2.7175    0.0000 F   0  0  0  0  0  0  0  0  0  0  0  0
   -2.9458   -2.4073    0.0000 F   0  0  0  0  0  0  0  0  0  0  0  0
   -4.7479    0.4215    0.0000 C   0  0  0  0  0  0  0  0  0  0  0  0
   -4.9030    1.9135    0.0000 F   0  0  0  0  0  0  0  0  0  0  0  0
   -6.2399    0.2664    0.0000 F   0  0  0  0  0  0  0  0  0  0  0  0
   -3.2560    0.5766    0.0000 F   0  0  0  0  0  0  0  0  0  0  0  0
   -2.3494    0.3828    0.0000 S   0  0  0  0  0  0  0  0  0  0  0  0
   -0.0769    2.5393    0.0000 C   0  0  0  0  0  0  0  0  0  0  0  0
    1.0390    3.5417    0.0000 C   0  0  0  0  0  0  0  0  0  0  0  0
    0.7288    5.0093    0.0000 C   0  0  0  0  0  0  0  0  0  0  0  0
   -0.6973    5.4744    0.0000 N   0  0  0  0  0  4  0  0  0  0  0  0
   -1.0075    6.9420    0.0000 O   0  0  0  0  0  1  0  0  0  0  0  0
   -1.8131    4.4720    0.0000 C   0  0  0  0  0  0  0  0  0  0  0  0
   -1.5029    3.0044    0.0000 C   0  0  0  0  0  0  0  0  0  0  0  0
    2.7752    1.6090    0.0000 C   0  0  0  0  0  0  0  0  0  0  0  0
    4.2013    1.1438    0.0000 C   0  0  0  0  0  0  0  0  0  0  0  0
    4.5115   -0.3237    0.0000 C   0  0  0  0  0  0  0  0  0  0  0  0
    5.9375   -0.7889    0.0000 O   0  0  0  0  0  0  0  0  0  0  0  0
    7.0534    0.2135    0.0000 C   0  0  0  0  0  0  0  0  0  0  0  0
    8.4795   -0.2516    0.0000 F   0  0  0  0  0  0  0  0  0  0  0  0
    6.7432    1.6811    0.0000 F   0  0  0  0  0  0  0  0  0  0  0  0
  1  2  1  0
  2  3  1  0
  2  4  1  0
  2  5  1  0
  5  6  1  0
  6  7  2  0
  7  8  1  0
  9  8  1  6
  9 10  1  0
 10 11  2  0
 11 12  1  0
 12 13  1  0
 13 14  1  6
 14 15  1  0
 14 16  1  0
 16 17  1  0
 16 18  1  0
 16 19  1  0
 14 20  1  0
 20 21  1  0
 20 22  1  0
 20 23  1  0
 13 24  1  0
  9 25  1  0
 25 26  2  0
 26 27  1  0
 27 28  2  0
 28 29  1  0
 28 30  1  0
 30 31  2  0
  8 32  2  0
 32 33  1  0
 33 34  2  0
 34 35  1  0
 35 36  1  0
 36 37  1  0
 36 38  1  0
 34  6  1  0
 24 10  1  0
 31 25  1  0
M  CHG  2  28   1  29  -1
M  END
> <Identifier>
WOMBAT15

> <hERG>
0

$$$$

     RDKit          2D

 40 43  0  0  0  0  0  0  0  0999 V2000
   -6.0617    0.1511    0.0000 C   0  0  0  0  0  0  0  0  0  0  0  0
   -4.5784    0.3743    0.0000 C   0  0  0  0  0  0  0  0  0  0  0  0
   -4.0301    1.7705    0.0000 C   0  0  0  0  0  0  0  0  0  0  0  0
   -3.6434   -0.7986    0.0000 C   0  0  0  0  0  0  0  0  0  0  0  0
   -2.1601   -0.5753    0.0000 N   0  0  0  0  0  0  0  0  0  0  0  0
   -1.6118    0.8208    0.0000 C   0  0  0  0  0  0  0  0  0  0  0  0
   -0.1285    1.0441    0.0000 C   0  0  0  0  0  0  0  0  0  0  0  0
   -0.5700    0.3208    0.0000 C   0  0  0  0  0  0  0  0  0  0  0  0
    0.2132   -0.2181    0.0000 N   0  0  0  0  0  0  0  0  0  0  0  0
    3.7731    0.3177    0.0000 C   0  0  0  0  0  0  0  0  0  0  0  0
    4.7081   -0.8553    0.0000 C   0  0  0  0  0  0  0  0  0  0  0  0
    4.3214    1.7139    0.0000 C   0  0  0  0  0  0  0  0  0  0  0  0
   -0.3767   -0.9638    0.0000 C   0  0  0  0  0  0  0  0  0  0  0  0
    0.2582   -1.5250    0.0000 C   0  0  0  0  0  0  0  0  0  0  0  0
   -1.2251   -1.7483    0.0000 C   0  0  0  0  0  0  0  0  0  0  0  0
    0.8065   -0.1288    0.0000 C   0  0  0  0  0  0  0  0  0  0  0  0
    1.6267   -0.0564    0.0000 C   0  0  0  0  0  0  0  0  0  0  0  0
    2.3521    0.0162    0.0000 C   0  0  0  0  0  0  0  0  0  0  0  0
    2.3887    0.1093    0.0000 C   0  0  0  0  0  0  0  0  0  0  0  0
    2.3263    0.1875    0.0000 C   0  0  0  0  0  0  0  0  0  0  0  0
    1.6117    0.0434    0.0000 C   0  0  0  0  0  0  0  0  0  0  0  0
   -5.9842    7.4300    0.0000 C   0  0  0  0  0  0  0  0  0  0  0  0
   -4.6625    8.1392    0.0000 N   0  0  0  0  0  0  0  0  0  0  0  0
   -3.3874    7.3492    0.0000 C   0  0  0  0  0  0  0  0  0  0  0  0
   -2.0657    8.0584    0.0000 C   0  0  0  0  0  0  0  0  0  0  0  0
   -0.7906    7.2684    0.0000 C   0  0  0  0  0  0  0  0  0  0  0  0
    0.5312    7.9776    0.0000 O   0  0  0  0  0  0  0  0  0  0  0  0
    1.8062    7.1875    0.0000 C   0  0  0  0  0  0  0  0  0  0  0  0
    1.7596    5.6883    0.0000 C   0  0  0  0  0  0  0  0  0  0  0  0
    3.0347    4.8982    0.0000 C   0  0  0  0  0  0  0  0  0  0  0  0
    4.3564    5.6074    0.0000 C   0  0  0  0  0  0  0  0  0  0  0  0
    4.4031    7.1067    0.0000 C   0  0  0  0  0  0  0  0  0  0  0  0
    3.1280    7.8968    0.0000 C   0  0  0  0  0  0  0  0  0  0  0  0
    3.1746    9.3960    0.0000 C   0  0  0  0  0  0  0  0  0  0  0  0
   -0.8372    5.7691    0.0000 C   0  0  0  0  0  0  0  0  0  0  0  0
   -2.1590    5.0599    0.0000 C   0  0  0  0  0  0  0  0  0  0  0  0
   -2.2056    3.5606    0.0000 C   0  0  0  0  0  0  0  0  0  0  0  0
   -0.9306    2.7705    0.0000 C   0  0  0  0  0  0  0  0  0  0  0  0
    0.3912    3.4798    0.0000 C   0  0  0  0  0  0  0  0  0  0  0  0
    0.4378    4.9790    0.0000 C   0  0  0  0  0  0  0  0  0  0  0  0
  1  2  1  0
  2  3  1  0
  2  4  1  0
  4  5  1  0
  5  6  1  0
  7  6  1  6
  7  8  1  0
  8  9  1  0
  9 10  1  0
 10 11  1  0
 10 12  1  0
  9 13  1  0
 14 13  1  1
 14 15  1  0
 14 16  1  0
 16 17  1  0
 17 18  1  0
 18 19  1  0
 19 20  1  0
 20 21  1  0
 22 23  1  0
 23 24  1  0
 24 25  1  0
 26 25  1  1
 26 27  1  0
 27 28  1  0
 28 29  2  0
 29 30  1  0
 30 31  2  0
 31 32  1  0
 32 33  2  0
 33 34  1  0
 26 35  1  0
 35 36  2  0
 36 37  1  0
 37 38  2  0
 38 39  1  0
 39 40  2  0
 15  5  1  0
 21 16  1  0
 33 28  1  0
 40 35  1  0
 16  7  1  0
M  END
> <Identifier>
BERTOSAMIL

> <hERG>
0

$$$$

     RDKit          2D

 31 35  0  0  0  0  0  0  0  0999 V2000
    1.9280   -2.7308    0.0000 O   0  0  0  0  0  0  0  0  0  0  0  0
    2.3352   -1.2871    0.0000 C   0  0  0  0  0  0  0  0  0  0  0  0
    1.2886   -0.2126    0.0000 N   0  0  0  0  0  0  0  0  0  0  0  0
   -0.1653   -0.5818    0.0000 C   0  0  0  0  0  0  0  0  0  0  0  0
   -1.2119    0.4927    0.0000 C   0  0  0  0  0  0  0  0  0  0  0  0
   -2.6658    0.1235    0.0000 C   0  0  0  0  0  0  0  0  0  0  0  0
   -3.0730   -1.3202    0.0000 N   0  0  0  0  0  0  0  0  0  0  0  0
   -4.5269   -1.6894    0.0000 C   0  0  0  0  0  0  0  0  0  0  0  0
   -5.5735   -0.6149    0.0000 C   0  0  0  0  0  0  0  0  0  0  0  0
   -5.1663    0.8288    0.0000 C   0  0  0  0  0  0  0  0  0  0  0  0
   -6.2129    1.9033    0.0000 C   0  0  0  0  0  0  0  0  0  0  0  0
   -7.6668    1.5341    0.0000 C   0  0  0  0  0  0  0  0  0  0  0  0
   -8.0740    0.0905    0.0000 C   0  0  0  0  0  0  0  0  0  0  0  0
   -7.0274   -0.9840    0.0000 C   0  0  0  0  0  0  0  0  0  0  0  0
   -9.5729    0.0316    0.0000 O   0  0  0  0  0  0  0  0  0  0  0  0
  -10.0920    1.4389    0.0000 C   0  0  0  0  0  0  0  0  0  0  0  0
   -8.9140    2.3675    0.0000 O   0  0  0  0  0  0  0  0  0  0  0  0
   -2.0264   -2.3947    0.0000 C   0  0  0  0  0  0  0  0  0  0  0  0
   -0.5725   -2.0255    0.0000 C   0  0  0  0  0  0  0  0  0  0  0  0
    3.7891   -0.9180    0.0000 C   0  0  0  0  0  0  0  0  0  0  0  0
    4.8357   -1.9924    0.0000 C   0  0  0  0  0  0  0  0  0  0  0  0
    6.2896   -1.6233    0.0000 C   0  0  0  0  0  0  0  0  0  0  0  0
    7.3362   -2.6978    0.0000 O   0  0  0  0  0  0  0  0  0  0  0  0
    6.6968   -0.1796    0.0000 C   0  0  0  0  0  0  0  0  0  0  0  0
    8.1507    0.1896    0.0000 C   0  0  0  0  0  0  0  0  0  0  0  0
    8.5579    1.6332    0.0000 C   0  0  0  0  0  0  0  0  0  0  0  0
    7.5112    2.7077    0.0000 C   0  0  0  0  0  0  0  0  0  0  0  0
    7.9184    4.1514    0.0000 O   0  0  0  0  0  0  0  0  0  0  0  0
    6.0574    2.3386    0.0000 C   0  0  0  0  0  0  0  0  0  0  0  0
    5.6502    0.8949    0.0000 C   0  0  0  0  0  0  0  0  0  0  0  0
    4.1963    0.5257    0.0000 O   0  0  0  0  0  0  0  0  0  0  0  0
  1  2  2  0
  2  3  1  0
  3  4  1  0
  4  5  1  0
  5  6  1  0
  6  7  1  0
  7  8  1  0
  8  9  1  0
  9 10  2  0
 10 11  1  0
 11 12  2  0
 12 13  1  0
 13 14  2  0
 13 15  1  0
 15 16  1  0
 16 17  1  0
  7 18  1  0
 18 19  1  0
  2 20  1  0
 20 21  2  0
 21 22  1  0
 22 23  2  0
 22 24  1  0
 24 25  2  0
 25 26  1  0
 26 27  2  0
 27 28  1  0
 27 29  1  0
 29 30  2  0
 30 31  1  0
 19  4  1  0
 31 20  1  0
 14  9  1  0
 30 24  1  0
 17 12  1  0
M  END
> <Identifier>
JMC20066569-17

> <hERG>
0

$$$$

     RDKit          2D

 25 29  0  0  0  0  0  0  0  0999 V2000
    6.9379   -2.0471    0.0000 C   0  0  0  0  0  0  0  0  0  0  0  0
    6.1383   -0.7779    0.0000 O   0  0  0  0  0  0  0  0  0  0  0  0
    4.6395   -0.8358    0.0000 C   0  0  0  0  0  0  0  0  0  0  0  0
    3.9401   -2.1627    0.0000 C   0  0  0  0  0  0  0  0  0  0  0  0
    2.4412   -2.2205    0.0000 C   0  0  0  0  0  0  0  0  0  0  0  0
    1.6417   -0.9514    0.0000 C   0  0  0  0  0  0  0  0  0  0  0  0
    0.1428   -1.0092    0.0000 C   0  0  0  0  0  0  0  0  0  0  0  0
   -0.6567    0.2600    0.0000 C   0  0  0  0  0  0  0  0  0  0  0  0
    0.0427    1.5870    0.0000 N   0  0  0  0  0  4  0  0  0  0  0  0
    1.5416    1.6448    0.0000 C   0  0  0  0  0  0  0  0  0  0  0  0
    2.3411    0.3756    0.0000 C   0  0  0  0  0  0  0  0  0  0  0  0
    3.8399    0.4334    0.0000 C   0  0  0  0  0  0  0  0  0  0  0  0
    4.5393    1.7604    0.0000 O   0  0  0  0  0  0  0  0  0  0  0  0
    6.0382    1.8182    0.0000 C   0  0  0  0  0  0  0  0  0  0  0  0
   -0.7568    2.8561    0.0000 C   0  0  0  0  0  0  0  0  0  0  0  0
   -2.2557    2.7983    0.0000 C   0  0  0  0  0  0  0  0  0  0  0  0
   -2.9551    1.4713    0.0000 C   0  0  0  0  0  0  0  0  0  0  0  0
   -4.4540    1.4135    0.0000 C   0  0  0  0  0  0  0  0  0  0  0  0
   -5.1534    0.0865    0.0000 C   0  0  0  0  0  0  0  0  0  0  0  0
   -4.3539   -1.1826    0.0000 C   0  0  0  0  0  0  0  0  0  0  0  0
   -2.8550   -1.1248    0.0000 C   0  0  0  0  0  0  0  0  0  0  0  0
   -2.1556    0.2022    0.0000 C   0  0  0  0  0  0  0  0  0  0  0  0
   -5.3138   -2.3352    0.0000 O   0  0  0  0  0  0  0  0  0  0  0  0
   -6.7067   -1.7784    0.0000 C   0  0  0  0  0  0  0  0  0  0  0  0
   -6.6075   -0.2816    0.0000 O   0  0  0  0  0  0  0  0  0  0  0  0
  1  2  1  0
  2  3  1  0
  3  4  2  0
  4  5  1  0
  5  6  2  0
  6  7  1  0
  7  8  2  0
  8  9  1  0
  9 10  2  0
 10 11  1  0
 11 12  2  0
 12 13  1  0
 13 14  1  0
  9 15  1  0
 15 16  1  0
 16 17  1  0
 17 18  2  0
 18 19  1  0
 19 20  2  0
 20 21  1  0
 21 22  2  0
 20 23  1  0
 23 24  1  0
 24 25  1  0
 12  3  1  0
 22 17  1  0
 11  6  1  0
 25 19  1  0
 22  8  1  0
M  CHG  1   9   1
M  END
> <Identifier>
BERBERINE

> <hERG>
0

$$$$

     RDKit          2D

 26 29  0  0  0  0  0  0  0  0999 V2000
    0.6974   -3.4467    0.0000 C   0  0  0  0  0  0  0  0  0  0  0  0
    0.2757   -2.0072    0.0000 C   0  0  0  0  0  0  0  0  0  0  0  0
   -1.1818   -1.6527    0.0000 C   0  0  0  0  0  0  0  0  0  0  0  0
   -2.2176   -2.7377    0.0000 F   0  0  0  0  0  0  0  0  0  0  0  0
   -1.6036   -0.2132    0.0000 C   0  0  0  0  0  0  0  0  0  0  0  0
   -3.0611    0.1413    0.0000 N   0  0  0  0  0  0  0  0  0  0  0  0
   -3.4828    1.5808    0.0000 C   0  0  0  0  0  0  0  0  0  0  0  0
   -4.9403    1.9354    0.0000 C   0  0  0  0  0  0  0  0  0  0  0  0
   -5.9761    0.8504    0.0000 N   0  0  0  0  0  4  0  0  0  0  0  0
   -5.5543   -0.5891    0.0000 C   0  0  0  0  0  0  0  0  0  0  0  0
   -6.5901   -1.6741    0.0000 C   0  0  0  0  0  0  0  0  0  0  0  0
   -4.0968   -0.9436    0.0000 C   0  0  0  0  0  0  0  0  0  0  0  0
   -0.5678    0.8718    0.0000 C   0  0  0  0  0  0  0  0  0  0  0  0
    0.8897    0.5172    0.0000 C   0  0  0  0  0  0  0  0  0  0  0  0
    1.3114   -0.9223    0.0000 C   0  0  0  0  0  0  0  0  0  0  0  0
    2.7689   -1.2768    0.0000 C   0  0  0  0  0  0  0  0  0  0  0  0
    3.1907   -2.7163    0.0000 O   0  0  0  0  0  0  0  0  0  0  0  0
    3.8047   -0.1918    0.0000 C   0  0  0  0  0  0  0  0  0  0  0  0
    5.2622   -0.5464    0.0000 C   0  0  0  0  0  0  0  0  0  0  0  0
    6.2980    0.5386    0.0000 O   0  0  0  0  0  0  0  0  0  0  0  0
    5.6839   -1.9859    0.0000 O   0  0  0  0  0  1  0  0  0  0  0  0
    3.3830    1.2477    0.0000 C   0  0  0  0  0  0  0  0  0  0  0  0
    1.9255    1.6022    0.0000 N   0  0  0  0  0  4  0  0  0  0  0  0
    1.5038    3.0417    0.0000 C   0  0  0  0  0  0  0  0  0  0  0  0
    0.4188    4.0775    0.0000 C   0  0  0  0  0  0  0  0  0  0  0  0
    1.8583    4.4992    0.0000 C   0  0  0  0  0  0  0  0  0  0  0  0
  1  2  1  0
  2  3  2  0
  3  4  1  0
  3  5  1  0
  5  6  1  0
  6  7  1  0
  7  8  1  0
  8  9  1  0
  9 10  1  0
 10 11  1  1
 10 12  1  0
  5 13  2  0
 13 14  1  0
 14 15  2  0
 15 16  1  0
 16 17  2  0
 16 18  1  0
 18 19  1  1
 19 20  2  0
 19 21  1  0
 18 22  1  0
 22 23  2  0
 23 24  1  0
 24 25  1  0
 25 26  1  0
 15  2  1  0
 26 24  1  0
 12  6  1  0
 23 14  1  0
M  CHG  3   9   1  21  -1  23   1
M  END
> <Identifier>
GREPAFLOXACIN

> <hERG>
0

$$$$

     RDKit          2D

 16 17  0  0  0  0  0  0  0  0999 V2000
   -0.0000   -2.9063    0.0000 O   0  0  0  0  0  0  0  0  0  0  0  0
   -0.0000   -1.4063    0.0000 C   0  0  0  0  0  0  0  0  0  0  0  0
    1.2990   -0.6562    0.0000 C   0  0  0  0  0  0  0  0  0  0  0  0
    2.5981   -1.4063    0.0000 C   0  0  0  0  0  0  0  0  0  0  0  0
    3.8971   -0.6562    0.0000 C   0  0  0  0  0  0  0  0  0  0  0  0
    3.8971    0.8438    0.0000 C   0  0  0  0  0  0  0  0  0  0  0  0
    5.1962    1.5938    0.0000 F   0  0  0  0  0  0  0  0  0  0  0  0
    2.5981    1.5938    0.0000 C   0  0  0  0  0  0  0  0  0  0  0  0
    1.2990    0.8437    0.0000 C   0  0  0  0  0  0  0  0  0  0  0  0
   -1.2990   -0.6563    0.0000 C   0  0  0  0  0  0  0  0  0  0  0  0
   -1.2990    0.8438    0.0000 C   0  0  0  0  0  0  0  0  0  0  0  0
   -2.5981    1.5938    0.0000 C   0  0  0  0  0  0  0  0  0  0  0  0
   -3.8971    0.8438    0.0000 C   0  0  0  0  0  0  0  0  0  0  0  0
   -5.1962    1.5937    0.0000 F   0  0  0  0  0  0  0  0  0  0  0  0
   -3.8971   -0.6562    0.0000 C   0  0  0  0  0  0  0  0  0  0  0  0
   -2.5981   -1.4062    0.0000 C   0  0  0  0  0  0  0  0  0  0  0  0
  1  2  2  0
  2  3  1  0
  3  4  2  0
  4  5  1  0
  5  6  2  0
  6  7  1  0
  6  8  1  0
  8  9  2  0
  2 10  1  0
 10 11  2  0
 11 12  1  0
 12 13  2  0
 13 14  1  0
 13 15  1  0
 15 16  2  0
  9  3  1  0
 16 10  1  0
M  END
> <Identifier>
4,4'-DIFLUOROBENZOPHENONE

> <hERG>
0

$$$$

     RDKit          2D

 16 17  0  0  0  0  0  0  0  0999 V2000
   -0.1013   -2.6281    0.0000 O   0  0  0  0  0  0  0  0  0  0  0  0
    0.0489   -1.1356    0.0000 C   0  0  0  0  0  0  0  0  0  0  0  0
    1.4165   -0.5195    0.0000 C   0  0  0  0  0  0  0  0  0  0  0  0
    2.6339   -1.3958    0.0000 C   0  0  0  0  0  0  0  0  0  0  0  0
    4.0015   -0.7796    0.0000 C   0  0  0  0  0  0  0  0  0  0  0  0
    4.1517    0.7128    0.0000 C   0  0  0  0  0  0  0  0  0  0  0  0
    2.9343    1.5892    0.0000 C   0  0  0  0  0  0  0  0  0  0  0  0
    1.5667    0.9730    0.0000 C   0  0  0  0  0  0  0  0  0  0  0  0
    0.3493    1.8493    0.0000 F   0  0  0  0  0  0  0  0  0  0  0  0
   -1.1685   -0.2593    0.0000 C   0  0  0  0  0  0  0  0  0  0  0  0
   -1.0183    1.2332    0.0000 C   0  0  0  0  0  0  0  0  0  0  0  0
   -2.2357    2.1095    0.0000 C   0  0  0  0  0  0  0  0  0  0  0  0
   -3.6033    1.4933    0.0000 C   0  0  0  0  0  0  0  0  0  0  0  0
   -3.7535    0.0009    0.0000 C   0  0  0  0  0  0  0  0  0  0  0  0
   -2.5361   -0.8754    0.0000 C   0  0  0  0  0  0  0  0  0  0  0  0
   -2.6863   -2.3679    0.0000 F   0  0  0  0  0  0  0  0  0  0  0  0
  1  2  2  0
  2  3  1  0
  3  4  2  0
  4  5  1  0
  5  6  2  0
  6  7  1  0
  7  8  2  0
  8  9  1  0
  2 10  1  0
 10 11  2  0
 11 12  1  0
 12 13  2  0
 13 14  1  0
 14 15  2  0
 15 16  1  0
  8  3  1  0
 15 10  1  0
M  END
> <Identifier>
4,4-DIFLUOROBENZOPHENONE

> <hERG>
0

$$$$

     RDKit          2D

 51 53  0  0  0  0  0  0  0  0999 V2000
   -5.5736   -4.0840    0.0000 C   0  0  0  0  0  0  0  0  0  0  0  0
   -4.2511   -4.7919    0.0000 C   0  0  0  0  0  0  0  0  0  0  0  0
   -2.9768   -4.0005    0.0000 C   0  0  0  0  0  0  0  0  0  0  0  0
   -3.4648   -2.5821    0.0000 O   0  0  0  0  0  0  0  0  0  0  0  0
   -3.2891   -1.0924    0.0000 C   0  0  0  0  0  0  0  0  0  0  0  0
   -4.7023   -0.5896    0.0000 O   0  0  0  0  0  0  0  0  0  0  0  0
   -2.4844    0.1735    0.0000 C   0  0  0  0  0  0  0  0  0  0  0  0
   -3.6379    0.8748    0.0000 C   0  0  0  0  0  0  0  0  0  0  0  0
   -1.2101    0.9649    0.0000 C   0  0  0  0  0  0  0  0  0  0  0  0
   -1.6981    2.3833    0.0000 O   0  0  0  0  0  0  0  0  0  0  0  0
   -3.1705    2.6699    0.0000 C   0  0  0  0  0  0  0  0  0  0  0  0
   -3.6585    4.0883    0.0000 C   0  0  0  0  0  0  0  0  0  0  0  0
   -5.1308    4.3748    0.0000 C   0  0  0  0  0  0  0  0  0  0  0  0
   -6.4164    5.1477    0.0000 C   0  0  0  0  0  0  0  0  0  0  0  0
   -4.5929    5.7751    0.0000 O   0  0  0  0  0  0  0  0  0  0  0  0
   -5.5366    6.9410    0.0000 C   0  0  0  0  0  0  0  0  0  0  0  0
   -6.1152    3.2430    0.0000 C   0  0  0  0  0  0  0  0  0  0  0  0
   -7.5876    3.5296    0.0000 O   0  0  0  0  0  0  0  0  0  0  0  0
   -5.6272    1.8246    0.0000 C   0  0  0  0  0  0  0  0  0  0  0  0
   -6.6116    0.6928    0.0000 C   0  0  0  0  0  0  0  0  0  0  0  0
   -4.1549    1.5380    0.0000 O   0  0  0  0  0  0  0  0  0  0  0  0
    0.2813    1.1250    0.0000 C   0  0  0  0  0  0  0  0  0  0  0  0
    0.4571    2.6147    0.0000 C   0  0  0  0  0  0  0  0  0  0  0  0
    1.6945    0.6222    0.0000 C   0  0  0  0  0  0  0  0  0  0  0  0
    2.4992    1.8880    0.0000 O   0  0  0  0  0  0  0  0  0  0  0  0
    3.9978    1.8241    0.0000 C   0  0  0  0  0  0  0  0  0  0  0  0
    4.6918    0.4943    0.0000 O   0  0  0  0  0  0  0  0  0  0  0  0
    6.1904    0.4303    0.0000 C   0  0  0  0  0  0  0  0  0  0  0  0
    6.8844   -0.8995    0.0000 C   0  0  0  0  0  0  0  0  0  0  0  0
    6.9951    1.6962    0.0000 C   0  0  0  0  0  0  0  0  0  0  0  0
    6.3012    3.0261    0.0000 C   0  0  0  0  0  0  0  0  0  0  0  0
    7.1059    4.2919    0.0000 N   0  0  0  0  0  4  0  0  0  0  0  0
    8.6045    4.2280    0.0000 C   0  0  0  0  0  0  0  0  0  0  0  0
    6.4119    5.6218    0.0000 C   0  0  0  0  0  0  0  0  0  0  0  0
    4.8025    3.0900    0.0000 C   0  0  0  0  0  0  0  0  0  0  0  0
    4.1086    4.4198    0.0000 O   0  0  0  0  0  0  0  0  0  0  0  0
    2.7496   -0.4440    0.0000 C   0  0  0  0  0  0  0  0  0  0  0  0
    3.3566    0.9276    0.0000 C   0  0  0  0  0  0  0  0  0  0  0  0
    4.2482   -0.5080    0.0000 O   0  0  0  0  0  0  0  0  0  0  0  0
    3.2376   -1.8624    0.0000 C   0  0  0  0  0  0  0  0  0  0  0  0
    3.0618   -3.3521    0.0000 C   0  0  0  0  0  0  0  0  0  0  0  0
    4.4750   -3.8549    0.0000 C   0  0  0  0  0  0  0  0  0  0  0  0
    2.2571   -4.6180    0.0000 C   0  0  0  0  0  0  0  0  0  0  0  0
    3.3122   -5.6842    0.0000 O   0  0  0  0  0  0  0  0  0  0  0  0
    0.9829   -5.4094    0.0000 C   0  0  0  0  0  0  0  0  0  0  0  0
    1.4709   -6.8278    0.0000 C   0  0  0  0  0  0  0  0  0  0  0  0
   -0.5085   -5.5695    0.0000 C   0  0  0  0  0  0  0  0  0  0  0  0
   -0.6843   -7.0592    0.0000 O   0  0  0  0  0  0  0  0  0  0  0  0
   -1.9217   -5.0667    0.0000 C   0  0  0  0  0  0  0  0  0  0  0  0
   -1.8735   -6.5659    0.0000 C   0  0  0  0  0  0  0  0  0  0  0  0
   -3.2997   -5.6593    0.0000 O   0  0  0  0  0  0  0  0  0  0  0  0
  1  2  1  0
  3  2  1  1
  3  4  1  0
  4  5  1  0
  5  6  2  0
  5  7  1  0
  7  8  1  6
  7  9  1  0
  9 10  1  6
 11 10  1  6
 11 12  1  0
 12 13  1  0
 13 14  1  6
 13 15  1  0
 15 16  1  0
 13 17  1  0
 17 18  1  1
 17 19  1  0
 19 20  1  6
 19 21  1  0
  9 22  1  0
 22 23  1  1
 22 24  1  0
 24 25  1  1
 26 25  1  6
 26 27  1  0
 27 28  1  0
 28 29  1  1
 28 30  1  0
 30 31  1  0
 31 32  1  6
 32 33  1  0
 32 34  1  0
 31 35  1  0
 35 36  1  6
 24 37  1  0
 37 38  1  1
 37 39  1  0
 37 40  1  0
 40 41  1  0
 41 42  1  1
 41 43  1  0
 43 44  2  0
 43 45  1  0
 45 46  1  6
 45 47  1  0
 47 48  1  1
 47 49  1  0
 49 50  1  6
 49 51  1  0
 49  3  1  0
 21 11  1  0
 35 26  1  0
M  CHG  1  32   1
M  END
> <Identifier>
ERYTHROMYCIN

> <hERG>
0

$$$$

     RDKit          2D

 33 35  0  0  0  0  0  0  0  0999 V2000
   -7.5922   -2.8527    0.0000 C   0  0  0  0  0  0  0  0  0  0  0  0
   -6.8117   -1.5717    0.0000 O   0  0  0  0  0  0  0  0  0  0  0  0
   -7.5309   -0.2554    0.0000 C   0  0  0  0  0  0  0  0  0  0  0  0
   -9.0304   -0.2200    0.0000 C   0  0  0  0  0  0  0  0  0  0  0  0
   -9.7496    1.0964    0.0000 C   0  0  0  0  0  0  0  0  0  0  0  0
   -8.9691    2.3774    0.0000 C   0  0  0  0  0  0  0  0  0  0  0  0
   -9.6883    3.6938    0.0000 Cl  0  0  0  0  0  0  0  0  0  0  0  0
   -7.4695    2.3420    0.0000 C   0  0  0  0  0  0  0  0  0  0  0  0
   -6.7504    1.0256    0.0000 C   0  0  0  0  0  0  0  0  0  0  0  0
   -5.2508    0.9902    0.0000 C   0  0  0  0  0  0  0  0  0  0  0  0
   -4.4704    2.2712    0.0000 O   0  0  0  0  0  0  0  0  0  0  0  0
   -4.5317   -0.3262    0.0000 N   0  0  0  0  0  0  0  0  0  0  0  0
   -3.0321   -0.3616    0.0000 C   0  0  0  0  0  0  0  0  0  0  0  0
   -2.3130   -1.6779    0.0000 C   0  0  0  0  0  0  0  0  0  0  0  0
   -0.8134   -1.7133    0.0000 C   0  0  0  0  0  0  0  0  0  0  0  0
   -0.0942   -3.0297    0.0000 C   0  0  0  0  0  0  0  0  0  0  0  0
    1.4053   -3.0651    0.0000 C   0  0  0  0  0  0  0  0  0  0  0  0
    2.1858   -1.7841    0.0000 C   0  0  0  0  0  0  0  0  0  0  0  0
    3.6854   -1.8195    0.0000 S   0  0  0  0  0  0  0  0  0  0  0  0
    3.7208   -0.3199    0.0000 O   0  0  0  0  0  0  0  0  0  0  0  0
    3.6500   -3.3191    0.0000 O   0  0  0  0  0  1  0  0  0  0  0  0
    5.1849   -1.8549    0.0000 N   0  0  0  0  0  0  0  0  0  0  0  0
    5.9654   -0.5739    0.0000 C   0  0  0  0  0  0  0  0  0  0  0  0
    5.2463    0.7424    0.0000 O   0  0  0  0  0  0  0  0  0  0  0  0
    7.4650   -0.6093    0.0000 N   0  0  0  0  0  0  0  0  0  0  0  0
    8.2454    0.6716    0.0000 C   0  0  0  0  0  0  0  0  0  0  0  0
    9.7450    0.6362    0.0000 C   0  0  0  0  0  0  0  0  0  0  0  0
   10.5254    1.9172    0.0000 C   0  0  0  0  0  0  0  0  0  0  0  0
    9.8063    3.2336    0.0000 C   0  0  0  0  0  0  0  0  0  0  0  0
    8.3067    3.2690    0.0000 C   0  0  0  0  0  0  0  0  0  0  0  0
    7.5263    1.9880    0.0000 C   0  0  0  0  0  0  0  0  0  0  0  0
    1.4666   -0.4678    0.0000 C   0  0  0  0  0  0  0  0  0  0  0  0
   -0.0329   -0.4324    0.0000 C   0  0  0  0  0  0  0  0  0  0  0  0
  1  2  1  0
  2  3  1  0
  3  4  2  0
  4  5  1  0
  5  6  2  0
  6  7  1  0
  6  8  1  0
  8  9  2  0
  9 10  1  0
 10 11  2  0
 10 12  1  0
 12 13  1  0
 13 14  1  0
 14 15  1  0
 15 16  2  0
 16 17  1  0
 17 18  2  0
 18 19  1  0
 19 20  2  0
 19 21  1  0
 19 22  2  0
 22 23  1  0
 23 24  2  0
 23 25  1  0
 25 26  1  0
 26 27  1  0
 27 28  1  0
 28 29  1  0
 29 30  1  0
 30 31  1  0
 18 32  1  0
 32 33  2  0
  9  3  1  0
 33 15  1  0
 31 26  1  0
M  CHG  1  21  -1
M  END
> <Identifier>
GLIBENCLAMIDE

> <hERG>
0

$$$$

     RDKit          2D

 34 36  0  0  0  0  0  0  0  0999 V2000
  -10.3118    3.5739    0.0000 C   0  0  0  0  0  0  0  0  0  0  0  0
  -10.4699    2.0822    0.0000 C   0  0  0  0  0  0  0  0  0  0  0  0
   -9.2571    1.1995    0.0000 C   0  0  0  0  0  0  0  0  0  0  0  0
   -9.2583   -0.3005    0.0000 C   0  0  0  0  0  0  0  0  0  0  0  0
  -10.4726   -1.1811    0.0000 C   0  0  0  0  0  0  0  0  0  0  0  0
   -7.8321   -0.7652    0.0000 C   0  0  0  0  0  0  0  0  0  0  0  0
   -6.9494    0.4476    0.0000 N   0  0  0  0  0  0  0  0  0  0  0  0
   -5.4494    0.4464    0.0000 C   0  0  0  0  0  0  0  0  0  0  0  0
   -4.6983    1.7448    0.0000 O   0  0  0  0  0  0  0  0  0  0  0  0
   -4.7005   -0.8533    0.0000 N   0  0  0  0  0  0  0  0  0  0  0  0
   -3.2005   -0.8546    0.0000 C   0  0  0  0  0  0  0  0  0  0  0  0
   -2.4516   -2.1542    0.0000 C   0  0  0  0  0  0  0  0  0  0  0  0
   -0.9516   -2.1555    0.0000 C   0  0  0  0  0  0  0  0  0  0  0  0
   -0.2027   -3.4552    0.0000 C   0  0  0  0  0  0  0  0  0  0  0  0
    1.2973   -3.4564    0.0000 C   0  0  0  0  0  0  0  0  0  0  0  0
    2.0484   -2.1580    0.0000 C   0  0  0  0  0  0  0  0  0  0  0  0
    3.5484   -2.1593    0.0000 S   0  0  0  0  0  0  0  0  0  0  0  0
    3.5496   -0.6593    0.0000 O   0  0  0  0  0  0  0  0  0  0  0  0
    3.5471   -3.6593    0.0000 O   0  0  0  0  0  1  0  0  0  0  0  0
    5.0484   -2.1605    0.0000 N   0  0  0  0  0  0  0  0  0  0  0  0
    5.7995   -0.8621    0.0000 C   0  0  0  0  0  0  0  0  0  0  0  0
    5.0506    0.4376    0.0000 O   0  0  0  0  0  0  0  0  0  0  0  0
    7.2995   -0.8634    0.0000 N   0  0  0  0  0  0  0  0  0  0  0  0
    8.0506    0.4351    0.0000 C   0  0  0  0  0  0  0  0  0  0  0  0
    9.5506    0.4338    0.0000 C   0  0  0  0  0  0  0  0  0  0  0  0
   10.3016    1.7322    0.0000 C   0  0  0  0  0  0  0  0  0  0  0  0
    9.5527    3.0319    0.0000 C   0  0  0  0  0  0  0  0  0  0  0  0
   10.3038    4.3303    0.0000 C   0  0  0  0  0  0  0  0  0  0  0  0
    8.0527    3.0331    0.0000 C   0  0  0  0  0  0  0  0  0  0  0  0
    7.3016    1.7347    0.0000 C   0  0  0  0  0  0  0  0  0  0  0  0
    1.2995   -0.8583    0.0000 C   0  0  0  0  0  0  0  0  0  0  0  0
   -0.2005   -0.8571    0.0000 C   0  0  0  0  0  0  0  0  0  0  0  0
   -7.8301    1.6619    0.0000 C   0  0  0  0  0  0  0  0  0  0  0  0
   -7.3654    3.0881    0.0000 O   0  0  0  0  0  0  0  0  0  0  0  0
  1  2  1  0
  2  3  1  0
  3  4  2  0
  4  5  1  0
  4  6  1  0
  6  7  1  0
  7  8  1  0
  8  9  2  0
  8 10  1  0
 10 11  1  0
 11 12  1  0
 12 13  1  0
 13 14  2  0
 14 15  1  0
 15 16  2  0
 16 17  1  0
 17 18  2  0
 17 19  1  0
 17 20  2  0
 20 21  1  0
 21 22  2  0
 21 23  1  0
 23 24  1  0
 24 25  1  0
 25 26  1  0
 26 27  1  0
 27 28  1  0
 27 29  1  0
 29 30  1  0
 16 31  1  0
 31 32  2  0
  7 33  1  0
 33 34  2  0
 33  3  1  0
 32 13  1  0
 30 24  1  0
M  CHG  1  19  -1
M  END
> <Identifier>
GLIMEPIRIDE

> <hERG>
0

$$$$

     RDKit          2D

 18 18  0  0  0  0  0  0  0  0999 V2000
   -7.0400   -0.0180    0.0000 C   0  0  0  0  0  0  0  0  0  0  0  0
   -5.6298    0.4930    0.0000 C   0  0  0  0  0  0  0  0  0  0  0  0
   -5.3672    1.9699    0.0000 C   0  0  0  0  0  0  0  0  0  0  0  0
   -4.4821   -0.4728    0.0000 N   0  0  0  0  0  4  0  0  0  0  0  0
   -3.0718    0.0383    0.0000 C   0  0  0  0  0  0  0  0  0  0  0  0
   -1.9241   -0.9275    0.0000 C   0  0  0  0  0  0  0  0  0  0  0  0
   -2.1867   -2.4044    0.0000 O   0  0  0  0  0  0  0  0  0  0  0  0
   -0.5138   -0.4165    0.0000 C   0  0  0  0  0  0  0  0  0  0  0  0
   -0.2513    1.0604    0.0000 C   0  0  0  0  0  0  0  0  0  0  0  0
    1.1590    1.5714    0.0000 C   0  0  0  0  0  0  0  0  0  0  0  0
    2.3067    0.6056    0.0000 C   0  0  0  0  0  0  0  0  0  0  0  0
    3.7169    1.1166    0.0000 N   0  0  0  0  0  0  0  0  0  0  0  0
    4.8646    0.1508    0.0000 S   0  0  0  0  0  0  0  0  0  0  0  0
    6.0124   -0.8150    0.0000 C   0  0  0  0  0  0  0  0  0  0  0  0
    3.8988   -0.9969    0.0000 O   0  0  0  0  0  0  0  0  0  0  0  0
    5.8304    1.2986    0.0000 O   0  0  0  0  0  0  0  0  0  0  0  0
    2.0441   -0.8712    0.0000 C   0  0  0  0  0  0  0  0  0  0  0  0
    0.6339   -1.3823    0.0000 C   0  0  0  0  0  0  0  0  0  0  0  0
  1  2  1  0
  2  3  1  0
  2  4  1  0
  4  5  1  0
  5  6  1  0
  6  7  1  1
  6  8  1  0
  8  9  2  0
  9 10  1  0
 10 11  2  0
 11 12  1  0
 12 13  1  0
 13 14  1  0
 13 15  2  0
 13 16  2  0
 11 17  1  0
 17 18  2  0
 18  8  1  0
M  CHG  1   4   1
M  END
> <Identifier>
SOTALOL

> <hERG>
0

$$$$

     RDKit          2D

 33 37  0  0  0  0  0  0  0  0999 V2000
    7.8960    4.5513    0.0000 O   0  0  0  0  0  0  0  0  0  0  0  0
    7.9584    3.0526    0.0000 C   0  0  0  0  0  0  0  0  0  0  0  0
    9.2875    2.3573    0.0000 O   0  0  0  0  0  0  0  0  0  0  0  0
    6.6917    2.2492    0.0000 C   0  0  0  0  0  0  0  0  0  0  0  0
    6.7541    0.7505    0.0000 C   0  0  0  0  0  0  0  0  0  0  0  0
    5.4874   -0.0529    0.0000 C   0  0  0  0  0  0  0  0  0  0  0  0
    4.1583    0.6424    0.0000 C   0  0  0  0  0  0  0  0  0  0  0  0
    2.8916   -0.1610    0.0000 N   0  0  0  0  0  0  0  0  0  0  0  0
    1.4971    0.3916    0.0000 C   0  0  0  0  0  0  0  0  0  0  0  0
    0.5406   -0.7639    0.0000 C   0  0  0  0  0  0  0  0  0  0  0  0
   -0.9564   -0.6693    0.0000 C   0  0  0  0  0  0  0  0  0  0  0  0
   -1.6230    0.6744    0.0000 C   0  0  0  0  0  0  0  0  0  0  0  0
   -3.1200    0.7690    0.0000 C   0  0  0  0  0  0  0  0  0  0  0  0
   -3.9504   -0.4801    0.0000 N   0  0  0  0  0  0  0  0  0  0  0  0
   -5.4474   -0.3855    0.0000 C   0  0  0  0  0  0  0  0  0  0  0  0
   -6.1140    0.9582    0.0000 C   0  0  0  0  0  0  0  0  0  0  0  0
   -7.6110    1.0528    0.0000 N   0  0  0  0  0  0  0  0  0  0  0  0
   -8.5675   -0.1027    0.0000 C   0  0  0  0  0  0  0  0  0  0  0  0
   -9.9620    0.4499    0.0000 C   0  0  0  0  0  0  0  0  0  0  0  0
   -9.8674    1.9469    0.0000 N   0  0  0  0  0  0  0  0  0  0  0  0
   -8.4144    2.3195    0.0000 C   0  0  0  0  0  0  0  0  0  0  0  0
   -7.8619    3.7140    0.0000 O   0  0  0  0  0  0  0  0  0  0  0  0
   -3.2838   -1.8239    0.0000 C   0  0  0  0  0  0  0  0  0  0  0  0
   -1.7868   -1.9185    0.0000 C   0  0  0  0  0  0  0  0  0  0  0  0
    1.3440   -2.0306    0.0000 C   0  0  0  0  0  0  0  0  0  0  0  0
    0.9402   -3.4753    0.0000 C   0  0  0  0  0  0  0  0  0  0  0  0
    1.9894   -4.5473    0.0000 C   0  0  0  0  0  0  0  0  0  0  0  0
    1.5857   -5.9919    0.0000 Cl  0  0  0  0  0  0  0  0  0  0  0  0
    3.4424   -4.1746    0.0000 C   0  0  0  0  0  0  0  0  0  0  0  0
    3.8462   -2.7300    0.0000 C   0  0  0  0  0  0  0  0  0  0  0  0
    2.7970   -1.6580    0.0000 C   0  0  0  0  0  0  0  0  0  0  0  0
    4.0959    2.1411    0.0000 C   0  0  0  0  0  0  0  0  0  0  0  0
    5.3626    2.9445    0.0000 C   0  0  0  0  0  0  0  0  0  0  0  0
  1  2  2  0
  2  3  1  0
  2  4  1  0
  4  5  2  0
  5  6  1  0
  6  7  2  0
  7  8  1  0
  8  9  1  0
  9 10  2  0
 10 11  1  0
 11 12  1  0
 12 13  1  0
 13 14  1  0
 14 15  1  0
 15 16  1  0
 16 17  1  0
 17 18  1  0
 18 19  1  0
 19 20  1  0
 20 21  1  0
 21 22  2  0
 14 23  1  0
 23 24  1  0
 10 25  1  0
 25 26  2  0
 26 27  1  0
 27 28  1  0
 27 29  2  0
 29 30  1  0
 30 31  2  0
  7 32  1  0
 32 33  2  0
 33  4  1  0
 31  8  1  0
 24 11  1  0
 31 25  1  0
 21 17  1  0
M  END
> <Identifier>
BMCL20031829_05

> <hERG>
0

$$$$

     RDKit          2D

 18 19  0  0  0  0  0  0  0  0999 V2000
   -0.7816   -4.9592    0.0000 C   0  0  0  0  0  0  0  0  0  0  0  0
    0.0549   -3.7141    0.0000 C   0  0  0  0  0  0  0  0  0  0  0  0
   -0.6053   -2.3671    0.0000 O   0  0  0  0  0  0  0  0  0  0  0  0
    0.2311   -1.1220    0.0000 C   0  0  0  0  0  0  0  0  0  0  0  0
    1.7277   -1.2238    0.0000 O   0  0  0  0  0  0  0  0  0  0  0  0
   -0.4290    0.2249    0.0000 C   0  0  0  0  0  0  0  0  0  0  0  0
    1.0121    0.6412    0.0000 C   0  0  0  0  0  0  0  0  0  0  0  0
    2.0931   -0.3988    0.0000 C   0  0  0  0  0  0  0  0  0  0  0  0
    3.5342    0.0174    0.0000 C   0  0  0  0  0  0  0  0  0  0  0  0
    3.8943    1.4736    0.0000 C   0  0  0  0  0  0  0  0  0  0  0  0
    2.8133    2.5135    0.0000 C   0  0  0  0  0  0  0  0  0  0  0  0
    1.3722    2.0973    0.0000 C   0  0  0  0  0  0  0  0  0  0  0  0
   -0.5886    1.7164    0.0000 C   0  0  0  0  0  0  0  0  0  0  0  0
   -1.9601    2.3239    0.0000 C   0  0  0  0  0  0  0  0  0  0  0  0
   -3.1719    1.4399    0.0000 N   0  0  0  0  0  0  0  0  0  0  0  0
   -4.5434    2.0474    0.0000 C   0  0  0  0  0  0  0  0  0  0  0  0
   -3.0123   -0.0516    0.0000 C   0  0  0  0  0  0  0  0  0  0  0  0
   -1.6408   -0.6590    0.0000 C   0  0  0  0  0  0  0  0  0  0  0  0
  1  2  1  0
  2  3  1  0
  3  4  1  0
  4  5  2  0
  4  6  1  0
  6  7  1  0
  7  8  2  0
  8  9  1  0
  9 10  2  0
 10 11  1  0
 11 12  2  0
  6 13  1  0
 13 14  1  0
 14 15  1  0
 15 16  1  0
 15 17  1  0
 17 18  1  0
 18  6  1  0
 12  7  1  0
M  END
> <Identifier>
PETHIDINE HYDROCHLORIDE

> <hERG>
1

$$$$

     RDKit          2D

 16 16  0  0  0  0  0  0  0  0999 V2000
   -2.3929   -2.1120    0.0000 C   0  0  0  0  0  0  0  0  0  0  0  0
   -1.3203   -1.0635    0.0000 C   0  0  0  0  0  0  0  0  0  0  0  0
   -1.6920    0.3898    0.0000 N   0  0  0  0  0  4  0  0  0  0  0  0
   -3.1363    0.7945    0.0000 C   0  0  0  0  0  0  0  0  0  0  0  0
   -2.7316    2.2388    0.0000 C   0  0  0  0  0  0  0  0  0  0  0  0
   -3.5410   -0.6499    0.0000 C   0  0  0  0  0  0  0  0  0  0  0  0
   -4.5807    1.1992    0.0000 C   0  0  0  0  0  0  0  0  0  0  0  0
    0.1241   -1.4682    0.0000 C   0  0  0  0  0  0  0  0  0  0  0  0
    0.4958   -2.9214    0.0000 O   0  0  0  0  0  0  0  0  0  0  0  0
    1.1968   -0.4197    0.0000 C   0  0  0  0  0  0  0  0  0  0  0  0
    0.8251    1.0336    0.0000 C   0  0  0  0  0  0  0  0  0  0  0  0
    1.8978    2.0821    0.0000 C   0  0  0  0  0  0  0  0  0  0  0  0
    3.3421    1.6774    0.0000 C   0  0  0  0  0  0  0  0  0  0  0  0
    3.7138    0.2241    0.0000 C   0  0  0  0  0  0  0  0  0  0  0  0
    5.1582   -0.1806    0.0000 Cl  0  0  0  0  0  0  0  0  0  0  0  0
    2.6412   -0.8244    0.0000 C   0  0  0  0  0  0  0  0  0  0  0  0
  2  1  1  1
  2  3  1  0
  3  4  1  0
  4  5  1  0
  4  6  1  0
  4  7  1  0
  2  8  1  0
  8  9  2  0
  8 10  1  0
 10 11  2  0
 11 12  1  0
 12 13  2  0
 13 14  1  0
 14 15  1  0
 14 16  2  0
 16 10  1  0
M  CHG  1   3   1
M  END
> <Identifier>
BUPROPION

> <hERG>
0

$$$$

     RDKit          2D

 17 17  0  0  0  0  0  0  0  0999 V2000
   -5.3176   -0.8165    0.0000 C   0  0  0  0  0  0  0  0  0  0  0  0
   -4.3605    0.3385    0.0000 C   0  0  0  0  0  0  0  0  0  0  0  0
   -3.4034    1.4935    0.0000 C   0  0  0  0  0  0  0  0  0  0  0  0
   -5.5155    1.2956    0.0000 C   0  0  0  0  0  0  0  0  0  0  0  0
   -3.2056   -0.6186    0.0000 N   0  0  0  0  0  0  0  0  0  0  0  0
   -1.7992   -0.0969    0.0000 C   0  0  0  0  0  0  0  0  0  0  0  0
   -0.6442   -1.0540    0.0000 C   0  0  0  0  0  0  0  0  0  0  0  0
   -0.8956   -2.5328    0.0000 O   0  0  0  0  0  0  0  0  0  0  0  0
    0.7621   -0.5323    0.0000 C   0  0  0  0  0  0  0  0  0  0  0  0
    1.0135    0.9465    0.0000 C   0  0  0  0  0  0  0  0  0  0  0  0
    2.4199    1.4682    0.0000 C   0  0  0  0  0  0  0  0  0  0  0  0
    2.6712    2.9470    0.0000 Cl  0  0  0  0  0  0  0  0  0  0  0  0
    3.5748    0.5111    0.0000 C   0  0  0  0  0  0  0  0  0  0  0  0
    4.9812    1.0328    0.0000 N   0  0  0  0  0  0  0  0  0  0  0  0
    3.3235   -0.9677    0.0000 C   0  0  0  0  0  0  0  0  0  0  0  0
    4.4784   -1.9248    0.0000 Cl  0  0  0  0  0  0  0  0  0  0  0  0
    1.9171   -1.4894    0.0000 C   0  0  0  0  0  0  0  0  0  0  0  0
  1  2  1  0
  2  3  1  0
  2  4  1  0
  2  5  1  0
  5  6  1  0
  6  7  1  0
  7  8  1  1
  7  9  1  0
  9 10  2  0
 10 11  1  0
 11 12  1  0
 11 13  2  0
 13 14  1  0
 13 15  1  0
 15 16  1  0
 15 17  2  0
 17  9  1  0
M  END
> <Identifier>
CLENBUTEROL

> <hERG>
0

$$$$

     RDKit          2D

 18 19  0  0  0  0  0  0  0  0999 V2000
   -0.9336    2.2103    0.0000 O   0  0  0  0  0  0  0  0  0  0  0  0
   -1.2986    0.7554    0.0000 C   0  0  0  0  0  0  0  0  0  0  0  0
   -0.2211   -0.2882    0.0000 N   0  0  0  0  0  0  0  0  0  0  0  0
    1.2214    0.1232    0.0000 C   0  0  0  0  0  0  0  0  0  0  0  0
    2.2989   -0.9204    0.0000 C   0  0  0  0  0  0  0  0  0  0  0  0
    3.7414   -0.5090    0.0000 N   0  0  0  0  0  0  0  0  0  0  0  0
    4.8189   -1.5526    0.0000 C   0  0  0  0  0  0  0  0  0  0  0  0
    6.2614   -1.1412    0.0000 C   0  0  0  0  0  0  0  0  0  0  0  0
    6.6264    0.3137    0.0000 O   0  0  0  0  0  0  0  0  0  0  0  0
    5.5489    1.3573    0.0000 C   0  0  0  0  0  0  0  0  0  0  0  0
    4.1064    0.9459    0.0000 C   0  0  0  0  0  0  0  0  0  0  0  0
   -2.7411    0.3440    0.0000 C   0  0  0  0  0  0  0  0  0  0  0  0
   -3.8186    1.3875    0.0000 C   0  0  0  0  0  0  0  0  0  0  0  0
   -5.2611    0.9762    0.0000 C   0  0  0  0  0  0  0  0  0  0  0  0
   -5.6261   -0.4787    0.0000 C   0  0  0  0  0  0  0  0  0  0  0  0
   -7.0686   -0.8901    0.0000 Cl  0  0  0  0  0  0  0  0  0  0  0  0
   -4.5486   -1.5223    0.0000 C   0  0  0  0  0  0  0  0  0  0  0  0
   -3.1061   -1.1109    0.0000 C   0  0  0  0  0  0  0  0  0  0  0  0
  1  2  2  0
  2  3  1  0
  3  4  1  0
  4  5  1  0
  5  6  1  0
  6  7  1  0
  7  8  1  0
  8  9  1  0
  9 10  1  0
 10 11  1  0
  2 12  1  0
 12 13  2  0
 13 14  1  0
 14 15  2  0
 15 16  1  0
 15 17  1  0
 17 18  2  0
 11  6  1  0
 18 12  1  0
M  END
> <Identifier>
MOCLOBEMIDE

> <hERG>
0

$$$$

     RDKit          2D

 28 30  0  0  0  0  0  0  0  0999 V2000
    4.8072   -4.2492    0.0000 C   0  0  0  0  0  0  0  0  0  0  0  0
    5.7734   -3.1018    0.0000 O   0  0  0  0  0  0  0  0  0  0  0  0
    5.2628   -1.6914    0.0000 C   0  0  0  0  0  0  0  0  0  0  0  0
    3.7861   -1.4283    0.0000 C   0  0  0  0  0  0  0  0  0  0  0  0
    3.2755   -0.0179    0.0000 C   0  0  0  0  0  0  0  0  0  0  0  0
    1.7987    0.2451    0.0000 N   0  0  0  0  0  0  0  0  0  0  0  0
    1.2881    1.6555    0.0000 C   0  0  0  0  0  0  0  0  0  0  0  0
   -0.1886    1.9186    0.0000 N   0  0  0  0  0  0  0  0  0  0  0  0
   -0.6992    3.3290    0.0000 C   0  0  0  0  0  0  0  0  0  0  0  0
   -1.1548    0.7712    0.0000 C   0  0  0  0  0  0  0  0  0  0  0  0
   -2.6316    1.0342    0.0000 C   0  0  0  0  0  0  0  0  0  0  0  0
   -3.5977   -0.1132    0.0000 C   0  0  0  0  0  0  0  0  0  0  0  0
   -5.0745    0.1498    0.0000 N   0  0  0  0  0  0  0  0  0  0  0  0
   -6.0407   -0.9976    0.0000 C   0  0  0  0  0  0  0  0  0  0  0  0
   -5.5301   -2.4080    0.0000 O   0  0  0  0  0  0  0  0  0  0  0  0
   -7.5174   -0.7345    0.0000 C   0  0  0  0  0  0  0  0  0  0  0  0
   -8.5982   -1.7746    0.0000 C   0  0  0  0  0  0  0  0  0  0  0  0
   -9.9214   -1.0681    0.0000 C   0  0  0  0  0  0  0  0  0  0  0  0
   -9.6584    0.4086    0.0000 C   0  0  0  0  0  0  0  0  0  0  0  0
   -8.1726    0.6148    0.0000 O   0  0  0  0  0  0  0  0  0  0  0  0
    2.2543    2.8029    0.0000 N   0  0  0  0  0  0  0  0  0  0  0  0
    3.7310    2.5399    0.0000 C   0  0  0  0  0  0  0  0  0  0  0  0
    4.6972    3.6873    0.0000 C   0  0  0  0  0  0  0  0  0  0  0  0
    4.2416    1.1295    0.0000 C   0  0  0  0  0  0  0  0  0  0  0  0
    5.7184    0.8665    0.0000 C   0  0  0  0  0  0  0  0  0  0  0  0
    6.2290   -0.5440    0.0000 C   0  0  0  0  0  0  0  0  0  0  0  0
    7.7057   -0.8070    0.0000 O   0  0  0  0  0  0  0  0  0  0  0  0
    8.2163   -2.2174    0.0000 C   0  0  0  0  0  0  0  0  0  0  0  0
  1  2  1  0
  2  3  1  0
  3  4  2  0
  4  5  1  0
  5  6  2  0
  6  7  1  0
  7  8  1  0
  8  9  1  0
  8 10  1  0
 10 11  1  0
 11 12  1  0
 12 13  1  0
 13 14  1  0
 14 15  2  0
 16 14  1  1
 16 17  1  0
 17 18  1  0
 18 19  1  0
 19 20  1  0
  7 21  2  0
 21 22  1  0
 22 23  1  0
 22 24  2  0
 24 25  1  0
 25 26  2  0
 26 27  1  0
 27 28  1  0
 26  3  1  0
 24  5  1  0
 20 16  1  0
M  END
> <Identifier>
ALFUZOSIN

> <hERG>
0

$$$$

     RDKit          2D

 30 34  0  0  0  0  0  0  0  0999 V2000
   -7.7842    2.1078    0.0000 O   0  0  0  0  0  0  0  0  0  0  0  0
   -7.9780    0.6204    0.0000 C   0  0  0  0  0  0  0  0  0  0  0  0
   -9.2952   -0.0971    0.0000 N   0  0  0  0  0  0  0  0  0  0  0  0
   -9.0199   -1.5716    0.0000 C   0  0  0  0  0  0  0  0  0  0  0  0
   -7.5324   -1.7654    0.0000 C   0  0  0  0  0  0  0  0  0  0  0  0
   -6.8885   -0.4107    0.0000 N   0  0  0  0  0  0  0  0  0  0  0  0
   -5.4140   -0.1353    0.0000 C   0  0  0  0  0  0  0  0  0  0  0  0
   -4.4383   -1.2746    0.0000 C   0  0  0  0  0  0  0  0  0  0  0  0
   -2.9638   -0.9992    0.0000 N   0  0  0  0  0  4  0  0  0  0  0  0
   -1.9880   -2.1385    0.0000 C   0  0  0  0  0  0  0  0  0  0  0  0
   -0.5135   -1.8631    0.0000 C   0  0  0  0  0  0  0  0  0  0  0  0
   -0.0147   -0.4485    0.0000 C   0  0  0  0  0  0  0  0  0  0  0  0
    1.4598   -0.1731    0.0000 C   0  0  0  0  0  0  0  0  0  0  0  0
    2.5492   -1.2042    0.0000 C   0  0  0  0  0  0  0  0  0  0  0  0
    3.8665   -0.4866    0.0000 N   0  0  0  0  0  0  0  0  0  0  0  0
    5.2212   -1.1306    0.0000 C   0  0  0  0  0  0  0  0  0  0  0  0
    5.3410   -2.6258    0.0000 C   0  0  0  0  0  0  0  0  0  0  0  0
    6.6957   -3.2697    0.0000 C   0  0  0  0  0  0  0  0  0  0  0  0
    7.9307   -2.4184    0.0000 C   0  0  0  0  0  0  0  0  0  0  0  0
    7.8110   -0.9232    0.0000 C   0  0  0  0  0  0  0  0  0  0  0  0
    6.4563   -0.2793    0.0000 C   0  0  0  0  0  0  0  0  0  0  0  0
    3.5911    0.9879    0.0000 C   0  0  0  0  0  0  0  0  0  0  0  0
    4.5026    2.1791    0.0000 C   0  0  0  0  0  0  0  0  0  0  0  0
    3.9267    3.5642    0.0000 C   0  0  0  0  0  0  0  0  0  0  0  0
    2.4393    3.7579    0.0000 C   0  0  0  0  0  0  0  0  0  0  0  0
    1.8634    5.1430    0.0000 Cl  0  0  0  0  0  0  0  0  0  0  0  0
    1.5278    2.5667    0.0000 C   0  0  0  0  0  0  0  0  0  0  0  0
    2.1037    1.1816    0.0000 C   0  0  0  0  0  0  0  0  0  0  0  0
   -0.9905    0.6908    0.0000 C   0  0  0  0  0  0  0  0  0  0  0  0
   -2.4650    0.4154    0.0000 C   0  0  0  0  0  0  0  0  0  0  0  0
  1  2  2  0
  2  3  1  0
  3  4  1  0
  4  5  1  0
  5  6  1  0
  6  7  1  0
  7  8  1  0
  8  9  1  0
  9 10  1  0
 10 11  1  0
 11 12  1  0
 12 13  1  0
 13 14  2  0
 14 15  1  0
 15 16  1  0
 16 17  2  0
 17 18  1  0
 18 19  2  0
 19 20  1  0
 20 21  2  0
 15 22  1  0
 22 23  2  0
 23 24  1  0
 24 25  2  0
 25 26  1  0
 25 27  1  0
 27 28  2  0
 12 29  1  0
 29 30  1  0
  6  2  1  0
 30  9  1  0
 28 13  1  0
 21 16  1  0
 28 22  1  0
M  CHG  1   9   1
M  END
> <Identifier>
SERTINDOLE1

> <hERG>
0

$$$$

     RDKit          2D

 28 29  0  0  0  0  0  0  0  0999 V2000
   -2.4650    3.2592    0.0000 C   0  0  0  0  0  0  0  0  0  0  0  0
   -2.0542    1.8166    0.0000 C   0  0  0  0  0  0  0  0  0  0  0  0
   -3.0981    0.7395    0.0000 C   0  0  0  0  0  0  0  0  0  0  0  0
   -2.0210   -0.3045    0.0000 C   0  0  0  0  0  0  0  0  0  0  0  0
   -0.5784    0.1063    0.0000 O   0  0  0  0  0  0  0  0  0  0  0  0
    0.4987   -0.9376    0.0000 C   0  0  0  0  0  0  0  0  0  0  0  0
    0.1332   -2.3924    0.0000 O   0  0  0  0  0  0  0  0  0  0  0  0
    1.9414   -0.5268    0.0000 C   0  0  0  0  0  0  0  0  0  0  0  0
    3.0185   -1.5707    0.0000 C   0  0  0  0  0  0  0  0  0  0  0  0
    4.4611   -1.1599    0.0000 C   0  0  0  0  0  0  0  0  0  0  0  0
    5.5383   -2.2038    0.0000 O   0  0  0  0  0  0  0  0  0  0  0  0
    5.1727   -3.6586    0.0000 C   0  0  0  0  0  0  0  0  0  0  0  0
    4.8267    0.2949    0.0000 C   0  0  0  0  0  0  0  0  0  0  0  0
    6.2693    0.7057    0.0000 O   0  0  0  0  0  0  0  0  0  0  0  0
    7.3464   -0.3382    0.0000 C   0  0  0  0  0  0  0  0  0  0  0  0
    3.7496    1.3388    0.0000 C   0  0  0  0  0  0  0  0  0  0  0  0
    4.1151    2.7936    0.0000 O   0  0  0  0  0  0  0  0  0  0  0  0
    5.5577    3.2044    0.0000 C   0  0  0  0  0  0  0  0  0  0  0  0
    2.3069    0.9280    0.0000 C   0  0  0  0  0  0  0  0  0  0  0  0
   -4.1421   -0.3377    0.0000 C   0  0  0  0  0  0  0  0  0  0  0  0
   -5.5969    0.0279    0.0000 C   0  0  0  0  0  0  0  0  0  0  0  0
   -6.6408   -1.0492    0.0000 C   0  0  0  0  0  0  0  0  0  0  0  0
   -6.2300   -2.4919    0.0000 C   0  0  0  0  0  0  0  0  0  0  0  0
   -4.7752   -2.8574    0.0000 C   0  0  0  0  0  0  0  0  0  0  0  0
   -3.7312   -1.7803    0.0000 C   0  0  0  0  0  0  0  0  0  0  0  0
   -4.1752    1.7834    0.0000 N   0  0  0  0  0  4  0  0  0  0  0  0
   -3.8097    3.2382    0.0000 C   0  0  0  0  0  0  0  0  0  0  0  0
   -5.6179    1.3726    0.0000 C   0  0  0  0  0  0  0  0  0  0  0  0
  1  2  1  0
  3  2  1  6
  3  4  1  0
  4  5  1  0
  5  6  1  0
  6  7  2  0
  6  8  1  0
  8  9  2  0
  9 10  1  0
 10 11  1  0
 11 12  1  0
 10 13  2  0
 13 14  1  0
 14 15  1  0
 13 16  1  0
 16 17  1  0
 17 18  1  0
 16 19  2  0
  3 20  1  0
 20 21  2  0
 21 22  1  0
 22 23  2  0
 23 24  1  0
 24 25  2  0
  3 26  1  0
 26 27  1  0
 26 28  1  0
 19  8  1  0
 25 20  1  0
M  CHG  1  26   1
M  END
> <Identifier>
TRIMEBUTINE

> <hERG>
0

$$$$

     RDKit          2D

 25 26  0  0  0  0  0  0  0  0999 V2000
   -5.5206   -0.5468    0.0000 C   0  0  0  0  0  0  0  0  0  0  0  0
   -4.0546   -0.8641    0.0000 C   0  0  0  0  0  0  0  0  0  0  0  0
   -3.5964   -2.2924    0.0000 C   0  0  0  0  0  0  0  0  0  0  0  0
   -3.0467    0.2468    0.0000 N   0  0  0  0  0  4  0  0  0  0  0  0
   -1.5807   -0.0705    0.0000 C   0  0  0  0  0  0  0  0  0  0  0  0
   -0.5728    1.0404    0.0000 C   0  0  0  0  0  0  0  0  0  0  0  0
    0.8932    0.7231    0.0000 C   0  0  0  0  0  0  0  0  0  0  0  0
    1.2105    2.1891    0.0000 C   0  0  0  0  0  0  0  0  0  0  0  0
    0.0996    3.1970    0.0000 N   0  0  0  0  0  0  0  0  0  0  0  0
    2.6389    2.6473    0.0000 O   0  0  0  0  0  0  0  0  0  0  0  0
    2.3592    0.4057    0.0000 C   0  0  0  0  0  0  0  0  0  0  0  0
    2.8174   -1.0226    0.0000 C   0  0  0  0  0  0  0  0  0  0  0  0
    4.2835   -1.3399    0.0000 C   0  0  0  0  0  0  0  0  0  0  0  0
    5.2913   -0.2290    0.0000 C   0  0  0  0  0  0  0  0  0  0  0  0
    4.8331    1.1993    0.0000 C   0  0  0  0  0  0  0  0  0  0  0  0
    3.3671    1.5167    0.0000 C   0  0  0  0  0  0  0  0  0  0  0  0
    0.5759   -0.7430    0.0000 C   0  0  0  0  0  0  0  0  0  0  0  0
   -0.8525   -1.2011    0.0000 C   0  0  0  0  0  0  0  0  0  0  0  0
   -1.1698   -2.6672    0.0000 C   0  0  0  0  0  0  0  0  0  0  0  0
   -0.0588   -3.6750    0.0000 C   0  0  0  0  0  0  0  0  0  0  0  0
    1.3695   -3.2169    0.0000 C   0  0  0  0  0  0  0  0  0  0  0  0
    1.6868   -1.7508    0.0000 N   0  0  0  0  0  0  0  0  0  0  0  0
   -3.5049    1.6751    0.0000 C   0  0  0  0  0  0  0  0  0  0  0  0
   -4.9710    1.9925    0.0000 C   0  0  0  0  0  0  0  0  0  0  0  0
   -2.4971    2.7861    0.0000 C   0  0  0  0  0  0  0  0  0  0  0  0
  1  2  1  0
  2  3  1  0
  2  4  1  0
  4  5  1  0
  5  6  1  0
  7  6  1  6
  7  8  1  0
  8  9  1  0
  8 10  2  0
  7 11  1  0
 11 12  2  0
 12 13  1  0
 13 14  2  0
 14 15  1  0
 15 16  2  0
  7 17  1  0
 17 18  2  0
 18 19  1  0
 19 20  2  0
 20 21  1  0
 21 22  2  0
  4 23  1  0
 23 24  1  0
 23 25  1  0
 16 11  1  0
 22 17  1  0
M  CHG  1   4   1
M  END
> <Identifier>
DISOPYRAMIDE

> <hERG>
0

$$$$

     RDKit          2D

 16 17  0  0  0  0  0  0  0  0999 V2000
   -0.0000   -2.9063    0.0000 O   0  0  0  0  0  0  0  0  0  0  0  0
   -0.0000   -1.4063    0.0000 C   0  0  0  0  0  0  0  0  0  0  0  0
    1.2990   -0.6562    0.0000 C   0  0  0  0  0  0  0  0  0  0  0  0
    2.5981   -1.4063    0.0000 C   0  0  0  0  0  0  0  0  0  0  0  0
    3.8971   -0.6562    0.0000 C   0  0  0  0  0  0  0  0  0  0  0  0
    3.8971    0.8438    0.0000 C   0  0  0  0  0  0  0  0  0  0  0  0
    5.1962    1.5938    0.0000 F   0  0  0  0  0  0  0  0  0  0  0  0
    2.5981    1.5938    0.0000 C   0  0  0  0  0  0  0  0  0  0  0  0
    1.2990    0.8437    0.0000 C   0  0  0  0  0  0  0  0  0  0  0  0
   -1.2990   -0.6563    0.0000 C   0  0  0  0  0  0  0  0  0  0  0  0
   -1.2990    0.8438    0.0000 C   0  0  0  0  0  0  0  0  0  0  0  0
   -2.5981    1.5938    0.0000 C   0  0  0  0  0  0  0  0  0  0  0  0
   -3.8971    0.8438    0.0000 C   0  0  0  0  0  0  0  0  0  0  0  0
   -5.1962    1.5937    0.0000 F   0  0  0  0  0  0  0  0  0  0  0  0
   -3.8971   -0.6562    0.0000 C   0  0  0  0  0  0  0  0  0  0  0  0
   -2.5981   -1.4062    0.0000 C   0  0  0  0  0  0  0  0  0  0  0  0
  1  2  1  0
  2  3  1  0
  3  4  2  0
  4  5  1  0
  5  6  2  0
  6  7  1  0
  6  8  1  0
  8  9  2  0
  2 10  1  0
 10 11  2  0
 11 12  1  0
 12 13  2  0
 13 14  1  0
 13 15  1  0
 15 16  2  0
  9  3  1  0
 16 10  1  0
M  END
> <Identifier>
4,4'-DIFLUOROBENZHYDROL

> <hERG>
0

$$$$

     RDKit          2D

 21 23  0  0  0  0  0  0  0  0999 V2000
   -3.2765    2.2464    0.0000 C   0  0  0  0  0  0  0  0  0  0  0  0
   -1.8871    1.6809    0.0000 C   0  0  0  0  0  0  0  0  0  0  0  0
   -1.6822    0.1950    0.0000 C   0  0  0  0  0  0  0  0  0  0  0  0
   -2.7639   -0.8442    0.0000 N   0  0  0  0  0  0  0  0  0  0  0  0
   -4.2404   -0.5800    0.0000 C   0  0  0  0  0  0  0  0  0  0  0  0
   -2.1098   -2.1941    0.0000 C   0  0  0  0  0  0  0  0  0  0  0  0
   -2.8174   -3.5167    0.0000 C   0  0  0  0  0  0  0  0  0  0  0  0
   -0.6238   -1.9892    0.0000 C   0  0  0  0  0  0  0  0  0  0  0  0
   -0.3596   -0.5126    0.0000 C   0  0  0  0  0  0  0  0  0  0  0  0
    0.2059    0.8767    0.0000 C   0  0  0  0  0  0  0  0  0  0  0  0
    1.6918    1.0817    0.0000 C   0  0  0  0  0  0  0  0  0  0  0  0
    2.2573    2.4710    0.0000 C   0  0  0  0  0  0  0  0  0  0  0  0
    1.3368    3.6554    0.0000 C   0  0  0  0  0  0  0  0  0  0  0  0
   -0.1491    3.4504    0.0000 C   0  0  0  0  0  0  0  0  0  0  0  0
   -0.7146    2.0611    0.0000 C   0  0  0  0  0  0  0  0  0  0  0  0
    1.0812   -0.9298    0.0000 C   0  0  0  0  0  0  0  0  0  0  0  0
    1.4404   -2.3862    0.0000 C   0  0  0  0  0  0  0  0  0  0  0  0
    2.8812   -2.8033    0.0000 C   0  0  0  0  0  0  0  0  0  0  0  0
    3.9629   -1.7641    0.0000 C   0  0  0  0  0  0  0  0  0  0  0  0
    3.6038   -0.3077    0.0000 C   0  0  0  0  0  0  0  0  0  0  0  0
    2.1629    0.1094    0.0000 C   0  0  0  0  0  0  0  0  0  0  0  0
  1  2  1  0
  2  3  2  0
  3  4  1  0
  4  5  1  0
  4  6  1  0
  6  7  1  1
  6  8  1  0
  8  9  1  0
  9 10  1  0
 10 11  2  0
 11 12  1  0
 12 13  2  0
 13 14  1  0
 14 15  2  0
  9 16  1  0
 16 17  2  0
 17 18  1  0
 18 19  2  0
 19 20  1  0
 20 21  2  0
  9  3  1  0
 15 10  1  0
 21 16  1  0
M  END
> <Identifier>
2-ETHYLIDENE-1,5-DIMETHYL-3,3-DIPHENYLPYRROLIDINE (EDDP) (RACEMATE)

> <hERG>
0

$$$$

     RDKit          2D

 21 24  0  0  0  0  0  0  0  0999 V2000
    6.8111   -0.9909    0.0000 C   0  0  0  0  0  0  0  0  0  0  0  0
    5.3784   -0.5467    0.0000 C   0  0  0  0  0  0  0  0  0  0  0  0
    4.8956    0.8735    0.0000 C   0  0  0  0  0  0  0  0  0  0  0  0
    3.3958    0.8532    0.0000 N   0  0  0  0  0  0  0  0  0  0  0  0
    2.3771    1.9542    0.0000 C   0  0  0  0  0  0  0  0  0  0  0  0
    0.9142    1.6225    0.0000 C   0  0  0  0  0  0  0  0  0  0  0  0
    0.4700    0.1898    0.0000 N   0  0  0  0  0  0  0  0  0  0  0  0
   -0.9928   -0.1419    0.0000 C   0  0  0  0  0  0  0  0  0  0  0  0
   -2.0115    0.9592    0.0000 C   0  0  0  0  0  0  0  0  0  0  0  0
   -3.2727    0.1472    0.0000 C   0  0  0  0  0  0  0  0  0  0  0  0
   -4.6065    0.8334    0.0000 C   0  0  0  0  0  0  0  0  0  0  0  0
   -5.8677    0.0214    0.0000 C   0  0  0  0  0  0  0  0  0  0  0  0
   -5.7951   -1.4769    0.0000 C   0  0  0  0  0  0  0  0  0  0  0  0
   -4.4613   -2.1631    0.0000 C   0  0  0  0  0  0  0  0  0  0  0  0
   -3.2001   -1.3511    0.0000 C   0  0  0  0  0  0  0  0  0  0  0  0
   -2.5922    2.3422    0.0000 C   0  0  0  0  0  0  0  0  0  0  0  0
   -1.1041    2.1536    0.0000 C   0  0  0  0  0  0  0  0  0  0  0  0
    1.4887   -0.9112    0.0000 C   0  0  0  0  0  0  0  0  0  0  0  0
    1.0445   -2.3440    0.0000 O   0  0  0  0  0  0  0  0  0  0  0  0
    2.9516   -0.5796    0.0000 C   0  0  0  0  0  0  0  0  0  0  0  0
    4.1769   -1.4447    0.0000 N   0  0  0  0  0  0  0  0  0  0  0  0
  1  2  1  0
  2  3  2  0
  3  4  1  0
  4  5  1  0
  5  6  2  0
  6  7  1  0
  7  8  1  0
  8  9  1  0
  9 10  1  0
 10 11  2  0
 11 12  1  0
 12 13  2  0
 13 14  1  0
 14 15  2  0
  9 16  1  0
 16 17  1  0
  7 18  1  0
 18 19  2  0
 18 20  1  0
 20 21  2  0
 21  2  1  0
 20  4  1  0
 17  9  1  0
 15 10  1  0
M  END
> <Identifier>
2-METHYL-7-[(1-PHENYLCYCLOPROPYL)METHYL]IMIDAZO[1,2-A]PYRAZIN-8(7H)-ONE HYDROCHLORIDE

> <hERG>
0

$$$$

     RDKit          2D

 27 28  0  0  0  0  0  0  0  0999 V2000
   -2.4698    4.6357    0.0000 C   0  0  0  0  0  0  0  0  0  0  0  0
   -1.0043    4.3160    0.0000 C   0  0  0  0  0  0  0  0  0  0  0  0
   -0.5484    2.8869    0.0000 O   0  0  0  0  0  0  0  0  0  0  0  0
    0.9172    2.5672    0.0000 C   0  0  0  0  0  0  0  0  0  0  0  0
    1.9268    3.6765    0.0000 O   0  0  0  0  0  0  0  0  0  0  0  0
    1.3731    1.1382    0.0000 C   0  0  0  0  0  0  0  0  0  0  0  0
    2.8386    0.8185    0.0000 C   0  0  0  0  0  0  0  0  0  0  0  0
    3.2945   -0.6106    0.0000 C   0  0  0  0  0  0  0  0  0  0  0  0
    4.7600   -0.9303    0.0000 C   0  0  0  0  0  0  0  0  0  0  0  0
    5.2159   -2.3593    0.0000 C   0  0  0  0  0  0  0  0  0  0  0  0
    6.6814   -2.6790    0.0000 C   0  0  0  0  0  0  0  0  0  0  0  0
    7.6911   -1.5697    0.0000 C   0  0  0  0  0  0  0  0  0  0  0  0
    7.2352   -0.1407    0.0000 C   0  0  0  0  0  0  0  0  0  0  0  0
    5.7697    0.1790    0.0000 C   0  0  0  0  0  0  0  0  0  0  0  0
    0.3634    0.0288    0.0000 N   0  0  0  0  0  0  0  0  0  0  0  0
   -1.1021    0.3485    0.0000 C   0  0  0  0  0  0  0  0  0  0  0  0
   -1.5580    1.7776    0.0000 C   0  0  0  0  0  0  0  0  0  0  0  0
   -2.1118   -0.7608    0.0000 C   0  0  0  0  0  0  0  0  0  0  0  0
   -1.6559   -2.1898    0.0000 O   0  0  0  0  0  0  0  0  0  0  0  0
   -3.5773   -0.4411    0.0000 N   0  0  0  0  0  0  0  0  0  0  0  0
   -4.1801    0.9325    0.0000 C   0  0  0  0  0  0  0  0  0  0  0  0
   -5.6727    0.7836    0.0000 C   0  0  0  0  0  0  0  0  0  0  0  0
   -5.9924   -0.6819    0.0000 C   0  0  0  0  0  0  0  0  0  0  0  0
   -4.6974   -1.4388    0.0000 C   0  0  0  0  0  0  0  0  0  0  0  0
   -4.5485   -2.9314    0.0000 C   0  0  0  0  0  0  0  0  0  0  0  0
   -3.1815   -3.5488    0.0000 O   0  0  0  0  0  0  0  0  0  0  0  0
   -5.7668   -3.8066    0.0000 O   0  0  0  0  0  0  0  0  0  0  0  0
  1  2  1  0
  2  3  1  0
  3  4  1  0
  4  5  2  0
  4  6  1  0
  6  7  1  6
  7  8  1  0
  8  9  1  0
  9 10  2  0
 10 11  1  0
 11 12  2  0
 12 13  1  0
 13 14  2  0
  6 15  1  0
 15 16  1  0
 16 17  1  6
 16 18  1  0
 18 19  2  0
 18 20  1  0
 20 21  1  0
 21 22  1  0
 22 23  1  0
 23 24  1  0
 24 25  1  6
 25 26  2  0
 25 27  1  0
 14  9  1  0
 24 20  1  0
M  END
> <Identifier>
ENALAPRIL NITRATE

> <hERG>
0

$$$$

     RDKit          2D

 33 36  0  0  0  0  0  0  0  0999 V2000
   -8.2094    2.2189    0.0000 C   0  0  0  0  0  0  0  0  0  0  0  0
   -7.5208    0.8863    0.0000 C   0  0  0  0  0  0  0  0  0  0  0  0
   -6.0224    0.8163    0.0000 C   0  0  0  0  0  0  0  0  0  0  0  0
   -5.3338   -0.5163    0.0000 C   0  0  0  0  0  0  0  0  0  0  0  0
   -6.0072   -1.8566    0.0000 N   0  0  0  0  0  0  0  0  0  0  0  0
   -4.9405   -2.9112    0.0000 N   0  0  0  0  0  4  0  0  0  0  0  0
   -5.1666   -4.3941    0.0000 C   0  0  0  0  0  0  0  0  0  0  0  0
   -3.6079   -2.2226    0.0000 C   0  0  0  0  0  0  0  0  0  0  0  0
   -2.2044   -2.7522    0.0000 C   0  0  0  0  0  0  0  0  0  0  0  0
   -1.9613   -4.2323    0.0000 O   0  0  0  0  0  0  0  0  0  0  0  0
   -1.0441   -1.8015    0.0000 N   0  0  0  0  0  0  0  0  0  0  0  0
   -1.2872   -0.3214    0.0000 C   0  0  0  0  0  0  0  0  0  0  0  0
   -0.1269    0.6292    0.0000 C   0  0  0  0  0  0  0  0  0  0  0  0
    1.2765    0.0997    0.0000 C   0  0  0  0  0  0  0  0  0  0  0  0
    2.4368    1.0503    0.0000 C   0  0  0  0  0  0  0  0  0  0  0  0
    3.8402    0.5208    0.0000 S   0  0  0  0  0  0  0  0  0  0  0  0
    3.3107   -0.8826    0.0000 O   0  0  0  0  0  0  0  0  0  0  0  0
    4.3698    1.9242    0.0000 O   0  0  0  0  0  0  0  0  0  0  0  0
    5.2436   -0.0088    0.0000 N   0  0  0  0  0  0  0  0  0  0  0  0
    5.4867   -1.4889    0.0000 C   0  0  0  0  0  0  0  0  0  0  0  0
    6.8902   -2.0185    0.0000 C   0  0  0  0  0  0  0  0  0  0  0  0
    8.0505   -1.0679    0.0000 N   0  0  0  0  0  4  0  0  0  0  0  0
    9.4539   -1.5974    0.0000 C   0  0  0  0  0  0  0  0  0  0  0  0
    7.8074    0.4123    0.0000 C   0  0  0  0  0  0  0  0  0  0  0  0
    6.4039    0.9418    0.0000 C   0  0  0  0  0  0  0  0  0  0  0  0
    2.1937    2.5305    0.0000 C   0  0  0  0  0  0  0  0  0  0  0  0
    0.7903    3.0600    0.0000 C   0  0  0  0  0  0  0  0  0  0  0  0
   -0.3700    2.1094    0.0000 C   0  0  0  0  0  0  0  0  0  0  0  0
   -1.7734    2.6390    0.0000 O   0  0  0  0  0  0  0  0  0  0  0  0
   -2.0166    4.1191    0.0000 C   0  0  0  0  0  0  0  0  0  0  0  0
   -3.4200    4.6487    0.0000 C   0  0  0  0  0  0  0  0  0  0  0  0
   -2.6907    0.2082    0.0000 N   0  0  0  0  0  0  0  0  0  0  0  0
   -3.8510   -0.7424    0.0000 C   0  0  0  0  0  0  0  0  0  0  0  0
  1  2  1  0
  2  3  1  0
  3  4  1  0
  4  5  2  0
  5  6  1  0
  6  7  1  0
  6  8  2  0
  8  9  1  0
  9 10  2  0
  9 11  1  0
 11 12  2  0
 12 13  1  0
 13 14  2  0
 14 15  1  0
 15 16  1  0
 16 17  2  0
 16 18  2  0
 16 19  1  0
 19 20  1  0
 20 21  1  0
 21 22  1  0
 22 23  1  0
 22 24  1  0
 24 25  1  0
 15 26  2  0
 26 27  1  0
 27 28  2  0
 28 29  1  0
 29 30  1  0
 30 31  1  0
 12 32  1  0
 32 33  2  0
 33  4  1  0
 33  8  1  0
 28 13  1  0
 25 19  1  0
M  CHG  2   6   1  22   1
M  END
> <Identifier>
SILDENAFIL

> <hERG>
0

$$$$

     RDKit          2D

 29 34  0  0  0  0  0  0  0  0999 V2000
   -0.3821    5.9291    0.0000 C   0  0  0  0  0  0  0  0  0  0  0  0
   -0.3137    4.4307    0.0000 N   0  0  0  0  0  0  0  0  0  0  0  0
   -1.5772    3.6222    0.0000 C   0  0  0  0  0  0  0  0  0  0  0  0
   -1.5088    2.1238    0.0000 C   0  0  0  0  0  0  0  0  0  0  0  0
   -2.7723    1.3154    0.0000 O   0  0  0  0  0  0  0  0  0  0  0  0
   -0.1770    1.4338    0.0000 N   0  0  0  0  0  0  0  0  0  0  0  0
   -0.1086   -0.0647    0.0000 C   0  0  0  0  0  0  0  0  0  0  0  0
   -1.3721   -0.8731    0.0000 C   0  0  0  0  0  0  0  0  0  0  0  0
   -1.3037   -2.3715    0.0000 C   0  0  0  0  0  0  0  0  0  0  0  0
   -2.5672   -3.1800    0.0000 C   0  0  0  0  0  0  0  0  0  0  0  0
   -3.8991   -2.4899    0.0000 C   0  0  0  0  0  0  0  0  0  0  0  0
   -3.9675   -0.9915    0.0000 C   0  0  0  0  0  0  0  0  0  0  0  0
   -2.7040   -0.1831    0.0000 C   0  0  0  0  0  0  0  0  0  0  0  0
   -5.4137   -0.5935    0.0000 O   0  0  0  0  0  0  0  0  0  0  0  0
   -6.2392   -1.8459    0.0000 C   0  0  0  0  0  0  0  0  0  0  0  0
   -5.3031   -3.0180    0.0000 O   0  0  0  0  0  0  0  0  0  0  0  0
    1.2233   -0.7547    0.0000 C   0  0  0  0  0  0  0  0  0  0  0  0
    1.6017   -2.2061    0.0000 N   0  0  0  0  0  0  0  0  0  0  0  0
    3.0991   -2.2948    0.0000 C   0  0  0  0  0  0  0  0  0  0  0  0
    4.0351   -3.4669    0.0000 C   0  0  0  0  0  0  0  0  0  0  0  0
    5.5182   -3.2422    0.0000 C   0  0  0  0  0  0  0  0  0  0  0  0
    6.0652   -1.8455    0.0000 C   0  0  0  0  0  0  0  0  0  0  0  0
    5.1292   -0.6735    0.0000 C   0  0  0  0  0  0  0  0  0  0  0  0
    3.6461   -0.8981    0.0000 C   0  0  0  0  0  0  0  0  0  0  0  0
    2.4868    0.0538    0.0000 C   0  0  0  0  0  0  0  0  0  0  0  0
    2.4184    1.5522    0.0000 C   0  0  0  0  0  0  0  0  0  0  0  0
    1.0865    2.2422    0.0000 C   0  0  0  0  0  0  0  0  0  0  0  0
    1.0182    3.7407    0.0000 C   0  0  0  0  0  0  0  0  0  0  0  0
    2.2817    4.5491    0.0000 O   0  0  0  0  0  0  0  0  0  0  0  0
  1  2  1  0
  2  3  1  0
  3  4  1  0
  4  5  2  0
  4  6  1  0
  6  7  1  0
  7  8  1  6
  8  9  2  0
  9 10  1  0
 10 11  2  0
 11 12  1  0
 12 13  2  0
 12 14  1  0
 14 15  1  0
 15 16  1  0
  7 17  1  0
 17 18  1  0
 18 19  1  0
 19 20  2  0
 20 21  1  0
 21 22  2  0
 22 23  1  0
 23 24  2  0
 24 25  1  0
 25 26  1  0
 27 26  1  1
 27 28  1  0
 28 29  2  0
 28  2  1  0
 27  6  1  0
 13  8  1  0
 25 17  2  0
 16 11  1  0
 24 19  1  0
M  END
> <Identifier>
TADAFIL

> <hERG>
0

$$$$

     RDKit          2D

 29 34  0  0  0  0  0  0  0  0999 V2000
   -0.3821    5.9291    0.0000 C   0  0  0  0  0  0  0  0  0  0  0  0
   -0.3137    4.4307    0.0000 N   0  0  0  0  0  0  0  0  0  0  0  0
   -1.5772    3.6222    0.0000 C   0  0  0  0  0  0  0  0  0  0  0  0
   -1.5088    2.1238    0.0000 C   0  0  0  0  0  0  0  0  0  0  0  0
   -2.7723    1.3154    0.0000 O   0  0  0  0  0  0  0  0  0  0  0  0
   -0.1770    1.4338    0.0000 N   0  0  0  0  0  0  0  0  0  0  0  0
    1.0865    2.2422    0.0000 C   0  0  0  0  0  0  0  0  0  0  0  0
    2.4184    1.5522    0.0000 C   0  0  0  0  0  0  0  0  0  0  0  0
    2.4868    0.0538    0.0000 C   0  0  0  0  0  0  0  0  0  0  0  0
    1.2233   -0.7547    0.0000 C   0  0  0  0  0  0  0  0  0  0  0  0
    1.6017   -2.2061    0.0000 N   0  0  0  0  0  0  0  0  0  0  0  0
    3.0991   -2.2948    0.0000 C   0  0  0  0  0  0  0  0  0  0  0  0
    4.0351   -3.4669    0.0000 C   0  0  0  0  0  0  0  0  0  0  0  0
    5.5182   -3.2422    0.0000 C   0  0  0  0  0  0  0  0  0  0  0  0
    6.0652   -1.8455    0.0000 C   0  0  0  0  0  0  0  0  0  0  0  0
    5.1292   -0.6735    0.0000 C   0  0  0  0  0  0  0  0  0  0  0  0
    3.6461   -0.8981    0.0000 C   0  0  0  0  0  0  0  0  0  0  0  0
   -0.1086   -0.0647    0.0000 C   0  0  0  0  0  0  0  0  0  0  0  0
   -1.3721   -0.8731    0.0000 C   0  0  0  0  0  0  0  0  0  0  0  0
   -1.3037   -2.3715    0.0000 C   0  0  0  0  0  0  0  0  0  0  0  0
   -2.5672   -3.1800    0.0000 C   0  0  0  0  0  0  0  0  0  0  0  0
   -3.8991   -2.4899    0.0000 C   0  0  0  0  0  0  0  0  0  0  0  0
   -3.9675   -0.9915    0.0000 C   0  0  0  0  0  0  0  0  0  0  0  0
   -2.7040   -0.1831    0.0000 C   0  0  0  0  0  0  0  0  0  0  0  0
   -5.4137   -0.5935    0.0000 O   0  0  0  0  0  0  0  0  0  0  0  0
   -6.2392   -1.8459    0.0000 C   0  0  0  0  0  0  0  0  0  0  0  0
   -5.3031   -3.0180    0.0000 O   0  0  0  0  0  0  0  0  0  0  0  0
    1.0182    3.7407    0.0000 C   0  0  0  0  0  0  0  0  0  0  0  0
    2.2817    4.5491    0.0000 O   0  0  0  0  0  0  0  0  0  0  0  0
  1  2  1  0
  2  3  1  0
  3  4  1  0
  4  5  2  0
  4  6  1  0
  6  7  1  0
  7  8  1  1
  8  9  1  0
  9 10  2  0
 10 11  1  0
 11 12  1  0
 12 13  2  0
 13 14  1  0
 14 15  2  0
 15 16  1  0
 16 17  2  0
 10 18  1  0
 18 19  1  1
 19 20  2  0
 20 21  1  0
 21 22  2  0
 22 23  1  0
 23 24  2  0
 23 25  1  0
 25 26  1  0
 26 27  1  0
  7 28  1  0
 28 29  2  0
 28  2  1  0
 18  6  1  0
 24 19  1  0
 17  9  1  0
 27 22  1  0
 17 12  1  0
M  END
> <Identifier>
TADALAFIL

> <hERG>
0

$$$$

     RDKit          2D

 58 60  0  0  0  0  0  0  0  0999 V2000
   -0.6522   -1.6046    0.0000 C   0  0  0  0  0  0  0  0  0  0  0  0
   -1.2426   -0.2257    0.0000 O   0  0  0  0  0  0  0  0  0  0  0  0
   -2.7320   -0.0475    0.0000 C   0  0  0  0  0  0  0  0  0  0  0  0
   -3.1973   -1.4735    0.0000 C   0  0  0  0  0  0  0  0  0  0  0  0
   -1.8895   -2.2081    0.0000 O   0  0  0  0  0  0  0  0  0  0  0  0
   -1.8717   -3.7080    0.0000 C   0  0  0  0  0  0  0  0  0  0  0  0
   -0.5639   -4.4425    0.0000 C   0  0  0  0  0  0  0  0  0  0  0  0
   -3.1618   -4.4733    0.0000 O   0  0  0  0  0  0  0  0  0  0  0  0
   -4.1729   -2.6129    0.0000 C   0  0  0  0  0  0  0  0  0  0  0  0
   -5.5103   -3.2922    0.0000 C   0  0  0  0  0  0  0  0  0  0  0  0
   -5.1049   -4.7364    0.0000 O   0  0  0  0  0  0  0  0  0  0  0  0
   -7.0058   -3.4081    0.0000 O   0  0  0  0  0  0  0  0  0  0  0  0
   -8.4318   -2.9428    0.0000 C   0  0  0  0  0  0  0  0  0  0  0  0
   -9.1663   -4.2506    0.0000 C   0  0  0  0  0  0  0  0  0  0  0  0
   -9.5712   -1.9672    0.0000 C   0  0  0  0  0  0  0  0  0  0  0  0
  -10.2505   -0.6298    0.0000 C   0  0  0  0  0  0  0  0  0  0  0  0
  -10.3663    0.8657    0.0000 C   0  0  0  0  0  0  0  0  0  0  0  0
   -9.9010    2.2917    0.0000 C   0  0  0  0  0  0  0  0  0  0  0  0
   -8.5637    2.9710    0.0000 C   0  0  0  0  0  0  0  0  0  0  0  0
   -7.5881    4.1104    0.0000 C   0  0  0  0  0  0  0  0  0  0  0  0
   -8.5153    5.2895    0.0000 O   0  0  0  0  0  0  0  0  0  0  0  0
   -6.0926    4.2262    0.0000 C   0  0  0  0  0  0  0  0  0  0  0  0
   -5.9144    5.7156    0.0000 C   0  0  0  0  0  0  0  0  0  0  0  0
   -4.6666    3.7609    0.0000 C   0  0  0  0  0  0  0  0  0  0  0  0
   -3.5272    2.7854    0.0000 C   0  0  0  0  0  0  0  0  0  0  0  0
   -2.3480    3.7125    0.0000 C   0  0  0  0  0  0  0  0  0  0  0  0
   -0.9555    3.1550    0.0000 C   0  0  0  0  0  0  0  0  0  0  0  0
    0.2236    4.0821    0.0000 O   0  0  0  0  0  0  0  0  0  0  0  0
   -2.8478    1.4480    0.0000 C   0  0  0  0  0  0  0  0  0  0  0  0
   -1.4037    1.8534    0.0000 O   0  0  0  0  0  0  0  0  0  0  0  0
   -0.3305    0.8053    0.0000 C   0  0  0  0  0  0  0  0  0  0  0  0
   -0.7015   -0.6480    0.0000 O   0  0  0  0  0  0  0  0  0  0  0  0
    0.3716   -1.6961    0.0000 C   0  0  0  0  0  0  0  0  0  0  0  0
    0.0006   -3.1495    0.0000 C   0  0  0  0  0  0  0  0  0  0  0  0
    1.8158   -1.2907    0.0000 C   0  0  0  0  0  0  0  0  0  0  0  0
    2.8889   -2.3387    0.0000 O   0  0  0  0  0  0  0  0  0  0  0  0
    4.3331   -1.9334    0.0000 C   0  0  0  0  0  0  0  0  0  0  0  0
    5.4063   -2.9814    0.0000 C   0  0  0  0  0  0  0  0  0  0  0  0
    6.8505   -2.5760    0.0000 C   0  0  0  0  0  0  0  0  0  0  0  0
    8.3462   -2.6890    0.0000 C   0  0  0  0  0  0  0  0  0  0  0  0
    6.9989   -4.0687    0.0000 O   0  0  0  0  0  0  0  0  0  0  0  0
    7.2215   -1.1226    0.0000 C   0  0  0  0  0  0  0  0  0  0  0  0
    8.6657   -0.7173    0.0000 O   0  0  0  0  0  0  0  0  0  0  0  0
    9.0367    0.7361    0.0000 C   0  0  0  0  0  0  0  0  0  0  0  0
    7.9636    1.7841    0.0000 O   0  0  0  0  0  0  0  0  0  0  0  0
   10.4809    1.1415    0.0000 C   0  0  0  0  0  0  0  0  0  0  0  0
   10.8520    2.5949    0.0000 C   0  0  0  0  0  0  0  0  0  0  0  0
   12.2961    3.0002    0.0000 C   0  0  0  0  0  0  0  0  0  0  0  0
    9.7788    3.6429    0.0000 C   0  0  0  0  0  0  0  0  0  0  0  0
    6.1484   -0.0746    0.0000 C   0  0  0  0  0  0  0  0  0  0  0  0
    6.5194    1.3788    0.0000 C   0  0  0  0  0  0  0  0  0  0  0  0
    4.7042   -0.4800    0.0000 O   0  0  0  0  0  0  0  0  0  0  0  0
    2.1868    0.1627    0.0000 C   0  0  0  0  0  0  0  0  0  0  0  0
    3.6310    0.5681    0.0000 N   0  0  0  0  0  4  0  0  0  0  0  0
    4.0021    2.0214    0.0000 C   0  0  0  0  0  0  0  0  0  0  0  0
    4.9259   -0.1892    0.0000 C   0  0  0  0  0  0  0  0  0  0  0  0
    1.1137    1.2107    0.0000 C   0  0  0  0  0  0  0  0  0  0  0  0
    1.4847    2.6641    0.0000 O   0  0  0  0  0  0  0  0  0  0  0  0
  1  2  1  0
  3  2  1  6
  3  4  1  0
  4  5  1  6
  5  6  1  0
  6  7  1  0
  6  8  2  0
  4  9  1  0
  9 10  1  0
 10 11  2  0
 10 12  1  0
 12 13  1  0
 13 14  1  6
 13 15  1  0
 15 16  1  0
 16 17  2  0
 17 18  1  0
 18 19  2  0
 19 20  1  0
 20 21  1  6
 20 22  1  0
 22 23  1  6
 22 24  1  0
 24 25  1  0
 25 26  1  6
 26 27  1  0
 27 28  2  0
 25 29  1  0
 29 30  1  1
 31 30  1  6
 31 32  1  0
 32 33  1  0
 33 34  1  1
 33 35  1  0
 35 36  1  1
 37 36  1  1
 37 38  1  0
 38 39  1  0
 39 40  1  1
 39 41  1  0
 39 42  1  0
 42 43  1  1
 43 44  1  0
 44 45  2  0
 44 46  1  0
 46 47  1  0
 47 48  1  0
 47 49  1  0
 42 50  1  0
 50 51  1  6
 50 52  1  0
 35 53  1  0
 53 54  1  1
 54 55  1  0
 54 56  1  0
 53 57  1  0
 57 58  1  6
 29  3  1  0
 57 31  1  0
 52 37  1  0
M  CHG  1  54   1
M  END
> <Identifier>
JOSAMYCIN

> <hERG>
0

$$$$

     RDKit          2D

 26 29  0  0  0  0  0  0  0  0999 V2000
    2.5414   -1.5552    0.0000 C   0  0  0  0  0  0  0  0  0  0  0  0
    3.1654   -0.1911    0.0000 C   0  0  0  0  0  0  0  0  0  0  0  0
    4.0347   -1.4135    0.0000 C   0  0  0  0  0  0  0  0  0  0  0  0
    5.5280   -1.2718    0.0000 C   0  0  0  0  0  0  0  0  0  0  0  0
    6.1520    0.0922    0.0000 C   0  0  0  0  0  0  0  0  0  0  0  0
    7.6453    0.2339    0.0000 O   0  0  0  0  0  0  0  0  0  0  0  0
    5.2826    1.3146    0.0000 C   0  0  0  0  0  0  0  0  0  0  0  0
    3.7893    1.1730    0.0000 C   0  0  0  0  0  0  0  0  0  0  0  0
    2.9200    2.3953    0.0000 C   0  0  0  0  0  0  0  0  0  0  0  0
    1.4267    2.2537    0.0000 C   0  0  0  0  0  0  0  0  0  0  0  0
    0.8028    0.8896    0.0000 C   0  0  0  0  0  0  0  0  0  0  0  0
    1.6721   -0.3328    0.0000 C   0  0  0  0  0  0  0  0  0  0  0  0
    1.0481   -1.6969    0.0000 C   0  0  0  0  0  0  0  0  0  0  0  0
   -0.4451   -1.8385    0.0000 C   0  0  0  0  0  0  0  0  0  0  0  0
   -1.3145   -0.6162    0.0000 C   0  0  0  0  0  0  0  0  0  0  0  0
   -1.9145   -1.9909    0.0000 C   0  0  0  0  0  0  0  0  0  0  0  0
   -0.6905    0.7479    0.0000 C   0  0  0  0  0  0  0  0  0  0  0  0
   -1.7950    1.7629    0.0000 C   0  0  0  0  0  0  0  0  0  0  0  0
   -3.1016    1.0260    0.0000 C   0  0  0  0  0  0  0  0  0  0  0  0
   -2.8046   -0.4443    0.0000 C   0  0  0  0  0  0  0  0  0  0  0  0
   -3.0025   -1.9311    0.0000 O   0  0  0  0  0  0  0  0  0  0  0  0
   -4.2979   -0.5859    0.0000 C   0  0  0  0  0  0  0  0  0  0  0  0
   -5.1672    0.6365    0.0000 C   0  0  0  0  0  0  0  0  0  0  0  0
   -6.6605    0.4948    0.0000 C   0  0  0  0  0  0  0  0  0  0  0  0
   -7.2845   -0.8693    0.0000 O   0  0  0  0  0  0  0  0  0  0  0  0
   -7.5299    1.7172    0.0000 O   0  0  0  0  0  1  0  0  0  0  0  0
  2  1  1  6
  2  3  1  0
  3  4  1  0
  4  5  1  0
  5  6  2  0
  5  7  1  0
  7  8  2  0
  8  9  1  0
  9 10  2  0
 11 10  1  6
 11 12  1  0
 12 13  1  6
 13 14  1  0
 14 15  1  0
 15 16  1  6
 15 17  1  0
 17 18  1  6
 18 19  1  0
 19 20  1  0
 20 21  1  6
 20 22  1  0
 22 23  1  0
 23 24  1  0
 24 25  2  0
 24 26  1  0
  8  2  1  0
 17 11  1  0
 12  2  1  0
 20 15  1  0
M  CHG  1  26  -1
M  END
> <Identifier>
CANRENOIC

> <hERG>
0

$$$$

     RDKit          2D

 26 29  0  0  0  0  0  0  0  0999 V2000
   -2.1928    1.2413    0.0000 C   0  0  0  0  0  0  0  0  0  0  0  0
   -1.3697   -0.0127    0.0000 C   0  0  0  0  0  0  0  0  0  0  0  0
   -0.7187    1.3387    0.0000 C   0  0  0  0  0  0  0  0  0  0  0  0
    0.7771    1.4506    0.0000 C   0  0  0  0  0  0  0  0  0  0  0  0
    1.6219    0.2112    0.0000 C   0  0  0  0  0  0  0  0  0  0  0  0
    0.9710   -1.1402    0.0000 C   0  0  0  0  0  0  0  0  0  0  0  0
    1.8159   -2.3796    0.0000 C   0  0  0  0  0  0  0  0  0  0  0  0
    3.3117   -2.2677    0.0000 C   0  0  0  0  0  0  0  0  0  0  0  0
    3.9626   -0.9163    0.0000 C   0  0  0  0  0  0  0  0  0  0  0  0
    5.4585   -0.8043    0.0000 C   0  0  0  0  0  0  0  0  0  0  0  0
    6.1094    0.5471    0.0000 C   0  0  0  0  0  0  0  0  0  0  0  0
    7.6052    0.6591    0.0000 O   0  0  0  0  0  0  0  0  0  0  0  0
    5.2645    1.7865    0.0000 C   0  0  0  0  0  0  0  0  0  0  0  0
    3.7687    1.6746    0.0000 C   0  0  0  0  0  0  0  0  0  0  0  0
    3.1178    0.3232    0.0000 C   0  0  0  0  0  0  0  0  0  0  0  0
    2.2729    1.5626    0.0000 C   0  0  0  0  0  0  0  0  0  0  0  0
   -0.5248   -1.2522    0.0000 C   0  0  0  0  0  0  0  0  0  0  0  0
   -1.4425   -2.4387    0.0000 C   0  0  0  0  0  0  0  0  0  0  0  0
   -2.8545   -1.9326    0.0000 C   0  0  0  0  0  0  0  0  0  0  0  0
   -2.8095   -0.4333    0.0000 C   0  0  0  0  0  0  0  0  0  0  0  0
   -3.2552    0.9990    0.0000 O   0  0  0  0  0  0  0  0  0  0  0  0
   -4.3053   -0.5452    0.0000 C   0  0  0  0  0  0  0  0  0  0  0  0
   -5.1502    0.6942    0.0000 C   0  0  0  0  0  0  0  0  0  0  0  0
   -6.6460    0.5822    0.0000 C   0  0  0  0  0  0  0  0  0  0  0  0
   -7.2970   -0.7692    0.0000 O   0  0  0  0  0  0  0  0  0  0  0  0
   -7.4909    1.8217    0.0000 O   0  0  0  0  0  0  0  0  0  0  0  0
  2  1  1  6
  2  3  1  0
  3  4  1  0
  5  4  1  1
  5  6  1  0
  6  7  1  1
  7  8  2  0
  8  9  1  0
  9 10  2  0
 10 11  1  0
 11 12  2  0
 11 13  1  0
 13 14  1  0
 14 15  1  0
 15 16  1  6
  6 17  1  0
 17 18  1  1
 18 19  1  0
 19 20  1  0
 20 21  1  6
 20 22  1  0
 22 23  1  0
 23 24  1  0
 24 25  2  0
 24 26  1  0
 17  2  1  0
 20  2  1  0
 15  5  1  0
 15  9  1  0
M  END
> <Identifier>
CANRENOIC_ACID

> <hERG>
0

$$$$

     RDKit          2D

 28 29  0  0  0  0  0  0  0  0999 V2000
   -6.9488   -4.3994    0.0000 C   0  0  0  0  0  0  0  0  0  0  0  0
   -7.3047   -2.9422    0.0000 C   0  0  0  0  0  0  0  0  0  0  0  0
   -6.2207   -1.9054    0.0000 O   0  0  0  0  0  0  0  0  0  0  0  0
   -6.5766   -0.4482    0.0000 C   0  0  0  0  0  0  0  0  0  0  0  0
   -8.0165   -0.0279    0.0000 C   0  0  0  0  0  0  0  0  0  0  0  0
   -8.3724    1.4293    0.0000 C   0  0  0  0  0  0  0  0  0  0  0  0
   -7.2884    2.4661    0.0000 C   0  0  0  0  0  0  0  0  0  0  0  0
   -5.8486    2.0457    0.0000 C   0  0  0  0  0  0  0  0  0  0  0  0
   -5.4926    0.5886    0.0000 C   0  0  0  0  0  0  0  0  0  0  0  0
   -4.0528    0.1682    0.0000 O   0  0  0  0  0  0  0  0  0  0  0  0
   -2.9688    1.2050    0.0000 C   0  0  0  0  0  0  0  0  0  0  0  0
   -1.5289    0.7847    0.0000 C   0  0  0  0  0  0  0  0  0  0  0  0
   -0.4449    1.8215    0.0000 N   0  0  0  0  0  4  0  0  0  0  0  0
    0.9950    1.4011    0.0000 C   0  0  0  0  0  0  0  0  0  0  0  0
    2.0790    2.4379    0.0000 C   0  0  0  0  0  0  0  0  0  0  0  0
    1.3509   -0.0561    0.0000 C   0  0  0  0  0  0  0  0  0  0  0  0
    2.7908   -0.4764    0.0000 C   0  0  0  0  0  0  0  0  0  0  0  0
    3.1467   -1.9336    0.0000 C   0  0  0  0  0  0  0  0  0  0  0  0
    4.5866   -2.3540    0.0000 C   0  0  0  0  0  0  0  0  0  0  0  0
    5.6706   -1.3172    0.0000 C   0  0  0  0  0  0  0  0  0  0  0  0
    7.1105   -1.7375    0.0000 O   0  0  0  0  0  0  0  0  0  0  0  0
    7.4664   -3.1947    0.0000 C   0  0  0  0  0  0  0  0  0  0  0  0
    5.3147    0.1400    0.0000 C   0  0  0  0  0  0  0  0  0  0  0  0
    6.3987    1.1768    0.0000 S   0  0  0  0  0  0  0  0  0  0  0  0
    7.4827    2.2136    0.0000 N   0  0  0  0  0  0  0  0  0  0  0  0
    5.3619    2.2608    0.0000 O   0  0  0  0  0  0  0  0  0  0  0  0
    7.4355    0.0928    0.0000 O   0  0  0  0  0  0  0  0  0  0  0  0
    3.8748    0.5604    0.0000 C   0  0  0  0  0  0  0  0  0  0  0  0
  1  2  1  0
  2  3  1  0
  3  4  1  0
  4  5  2  0
  5  6  1  0
  6  7  2  0
  7  8  1  0
  8  9  2  0
  9 10  1  0
 10 11  1  0
 11 12  1  0
 12 13  1  0
 13 14  1  0
 14 15  1  6
 14 16  1  0
 16 17  1  0
 17 18  2  0
 18 19  1  0
 19 20  2  0
 20 21  1  0
 21 22  1  0
 20 23  1  0
 23 24  1  0
 24 25  1  0
 24 26  2  0
 24 27  2  0
 23 28  2  0
  9  4  1  0
 28 17  1  0
M  CHG  1  13   1
M  END
> <Identifier>
TAMSULOSIN

> <hERG>
0

$$$$

     RDKit          2D

 26 27  0  0  0  0  0  0  0  0999 V2000
   -7.9365    3.4076    0.0000 C   0  0  0  0  0  0  0  0  0  0  0  0
   -6.8060    2.4217    0.0000 C   0  0  0  0  0  0  0  0  0  0  0  0
   -5.3869    2.9078    0.0000 C   0  0  0  0  0  0  0  0  0  0  0  0
   -4.2564    1.9219    0.0000 N   0  0  0  0  0  0  0  0  0  0  0  0
   -2.8374    2.4081    0.0000 C   0  0  0  0  0  0  0  0  0  0  0  0
   -1.7069    1.4222    0.0000 C   0  0  0  0  0  0  0  0  0  0  0  0
   -1.9954   -0.0498    0.0000 O   0  0  0  0  0  0  0  0  0  0  0  0
   -0.2878    1.9083    0.0000 C   0  0  0  0  0  0  0  0  0  0  0  0
    0.8427    0.9224    0.0000 O   0  0  0  0  0  0  0  0  0  0  0  0
    2.2617    1.4086    0.0000 C   0  0  0  0  0  0  0  0  0  0  0  0
    2.5503    2.8805    0.0000 C   0  0  0  0  0  0  0  0  0  0  0  0
    3.9693    3.3667    0.0000 C   0  0  0  0  0  0  0  0  0  0  0  0
    5.0998    2.3808    0.0000 C   0  0  0  0  0  0  0  0  0  0  0  0
    6.5189    2.8669    0.0000 O   0  0  0  0  0  0  0  0  0  0  0  0
    4.8113    0.9088    0.0000 C   0  0  0  0  0  0  0  0  0  0  0  0
    3.3922    0.4227    0.0000 C   0  0  0  0  0  0  0  0  0  0  0  0
    3.1037   -1.0493    0.0000 C   0  0  0  0  0  0  0  0  0  0  0  0
    4.2342   -2.0352    0.0000 O   0  0  0  0  0  0  0  0  0  0  0  0
    1.6847   -1.5354    0.0000 C   0  0  0  0  0  0  0  0  0  0  0  0
    1.3961   -3.0074    0.0000 C   0  0  0  0  0  0  0  0  0  0  0  0
   -0.0229   -3.4935    0.0000 C   0  0  0  0  0  0  0  0  0  0  0  0
   -1.1534   -2.5077    0.0000 C   0  0  0  0  0  0  0  0  0  0  0  0
   -2.5725   -2.9938    0.0000 C   0  0  0  0  0  0  0  0  0  0  0  0
   -2.8610   -4.4658    0.0000 C   0  0  0  0  0  0  0  0  0  0  0  0
   -1.7305   -5.4516    0.0000 C   0  0  0  0  0  0  0  0  0  0  0  0
   -0.3114   -4.9655    0.0000 C   0  0  0  0  0  0  0  0  0  0  0  0
  1  2  1  0
  2  3  1  0
  3  4  1  0
  4  5  1  0
  5  6  1  0
  6  7  1  6
  6  8  1  0
  8  9  1  0
  9 10  1  0
 10 11  2  0
 11 12  1  0
 12 13  2  0
 13 14  1  0
 13 15  1  0
 15 16  2  0
 16 17  1  0
 17 18  2  0
 17 19  1  0
 19 20  1  0
 20 21  1  0
 21 22  2  0
 22 23  1  0
 23 24  2  0
 24 25  1  0
 25 26  2  0
 16 10  1  0
 26 21  1  0
M  END
> <Identifier>
5-HYDROXYPROPAFENONE

> <hERG>
0

$$$$

     RDKit          2D

 19 21  0  0  0  0  0  0  0  0999 V2000
    1.4512   -2.7437    0.0000 C   0  0  0  0  0  0  0  0  0  0  0  0
    1.8636   -1.3015    0.0000 C   0  0  0  0  0  0  0  0  0  0  0  0
    0.8208   -0.2232    0.0000 C   0  0  0  0  0  0  0  0  0  0  0  0
   -0.6344   -0.5872    0.0000 C   0  0  0  0  0  0  0  0  0  0  0  0
   -1.3376   -1.9121    0.0000 O   0  0  0  0  0  0  0  0  0  0  0  0
   -2.8150   -1.6527    0.0000 C   0  0  0  0  0  0  0  0  0  0  0  0
   -3.8933   -2.6955    0.0000 O   0  0  0  0  0  0  0  0  0  0  0  0
   -3.0249   -0.1675    0.0000 C   0  0  0  0  0  0  0  0  0  0  0  0
   -4.3498    0.5358    0.0000 C   0  0  0  0  0  0  0  0  0  0  0  0
   -1.6772    0.4911    0.0000 C   0  0  0  0  0  0  0  0  0  0  0  0
   -1.2648    1.9333    0.0000 C   0  0  0  0  0  0  0  0  0  0  0  0
   -2.3075    3.0115    0.0000 O   0  0  0  0  0  0  0  0  0  0  0  0
    0.1904    2.2972    0.0000 C   0  0  0  0  0  0  0  0  0  0  0  0
    1.2332    1.2190    0.0000 C   0  0  0  0  0  0  0  0  0  0  0  0
    1.6456    2.6612    0.0000 C   0  0  0  0  0  0  0  0  0  0  0  0
    2.6884    1.5829    0.0000 C   0  0  0  0  0  0  0  0  0  0  0  0
    3.7311    0.5047    0.0000 C   0  0  0  0  0  0  0  0  0  0  0  0
    3.3187   -0.9375    0.0000 C   0  0  0  0  0  0  0  0  0  0  0  0
    4.3615   -2.0158    0.0000 O   0  0  0  0  0  0  0  0  0  0  0  0
  1  2  1  0
  2  3  2  0
  3  4  1  0
  4  5  1  6
  5  6  1  0
  6  7  2  0
  6  8  1  0
  8  9  1  1
 10  8  1  6
 10 11  1  0
 11 12  1  6
 11 13  1  0
 13 14  1  0
 14 15  1  1
 14 16  1  0
 16 17  2  0
 17 18  1  0
 18 19  2  0
 18  2  1  0
 14  3  1  0
 10  4  1  0
M  END
> <Identifier>
ARTEMISIN

> <hERG>
0

$$$$

     RDKit          2D

 22 24  0  0  0  0  0  0  0  0999 V2000
    1.9711    3.1653    0.0000 O   0  0  0  0  0  0  0  0  0  0  0  0
    1.3898    1.7825    0.0000 C   0  0  0  0  0  0  0  0  0  0  0  0
   -0.0984    1.5945    0.0000 C   0  0  0  0  0  0  0  0  0  0  0  0
   -1.0052    2.7893    0.0000 O   0  0  0  0  0  0  0  0  0  0  0  0
   -0.6796    0.2117    0.0000 C   0  0  0  0  0  0  0  0  0  0  0  0
   -2.1678    0.0237    0.0000 C   0  0  0  0  0  0  0  0  0  0  0  0
   -3.0747    1.2185    0.0000 C   0  0  0  0  0  0  0  0  0  0  0  0
   -4.5629    1.0305    0.0000 C   0  0  0  0  0  0  0  0  0  0  0  0
   -5.1441   -0.3523    0.0000 C   0  0  0  0  0  0  0  0  0  0  0  0
   -6.6323   -0.5403    0.0000 O   0  0  0  0  0  0  0  0  0  0  0  0
   -4.2372   -1.5471    0.0000 C   0  0  0  0  0  0  0  0  0  0  0  0
   -2.7491   -1.3591    0.0000 C   0  0  0  0  0  0  0  0  0  0  0  0
   -1.8422   -2.5539    0.0000 O   0  0  0  0  0  0  0  0  0  0  0  0
    0.2273   -0.9831    0.0000 O   0  0  0  0  0  0  0  0  0  0  0  0
    1.7154   -0.7951    0.0000 C   0  0  0  0  0  0  0  0  0  0  0  0
    2.6223   -1.9899    0.0000 C   0  0  0  0  0  0  0  0  0  0  0  0
    4.1105   -1.8019    0.0000 C   0  0  0  0  0  0  0  0  0  0  0  0
    5.0174   -2.9967    0.0000 O   0  0  0  0  0  0  0  0  0  0  0  0
    4.6918   -0.4191    0.0000 C   0  0  0  0  0  0  0  0  0  0  0  0
    3.7849    0.7757    0.0000 C   0  0  0  0  0  0  0  0  0  0  0  0
    4.3662    2.1585    0.0000 O   0  0  0  0  0  0  0  0  0  0  0  0
    2.2967    0.5877    0.0000 C   0  0  0  0  0  0  0  0  0  0  0  0
  1  2  2  0
  2  3  1  0
  3  4  1  0
  3  5  2  0
  5  6  1  0
  6  7  2  0
  7  8  1  0
  8  9  2  0
  9 10  1  0
  9 11  1  0
 11 12  2  0
 12 13  1  0
  5 14  1  0
 14 15  1  0
 15 16  2  0
 16 17  1  0
 17 18  1  0
 17 19  2  0
 19 20  1  0
 20 21  1  0
 20 22  2  0
 22  2  1  0
 12  6  1  0
 22 15  1  0
M  END
> <Identifier>
MORIN

> <hERG>
0

$$$$

     RDKit          2D

 26 27  0  0  0  0  0  0  0  0999 V2000
   -6.3781   -2.2126    0.0000 C   0  0  0  0  0  0  0  0  0  0  0  0
   -4.8786   -2.1741    0.0000 C   0  0  0  0  0  0  0  0  0  0  0  0
   -4.1621   -0.8563    0.0000 O   0  0  0  0  0  0  0  0  0  0  0  0
   -2.6626   -0.8179    0.0000 C   0  0  0  0  0  0  0  0  0  0  0  0
   -1.8796   -2.0973    0.0000 O   0  0  0  0  0  0  0  0  0  0  0  0
   -1.9461    0.4999    0.0000 C   0  0  0  0  0  0  0  0  0  0  0  0
   -2.7292    1.7793    0.0000 C   0  0  0  0  0  0  0  0  0  0  0  0
   -4.2287    1.7409    0.0000 C   0  0  0  0  0  0  0  0  0  0  0  0
   -2.0127    3.0971    0.0000 N   0  0  0  0  0  0  0  0  0  0  0  0
   -0.5132    3.1356    0.0000 C   0  0  0  0  0  0  0  0  0  0  0  0
    0.2033    4.4534    0.0000 C   0  0  0  0  0  0  0  0  0  0  0  0
    0.2699    1.8562    0.0000 C   0  0  0  0  0  0  0  0  0  0  0  0
    1.7694    1.8946    0.0000 C   0  0  0  0  0  0  0  0  0  0  0  0
    2.5524    0.6152    0.0000 O   0  0  0  0  0  0  0  0  0  0  0  0
    2.4859    3.2124    0.0000 O   0  0  0  0  0  0  0  0  0  0  0  0
    3.9854    3.2508    0.0000 C   0  0  0  0  0  0  0  0  0  0  0  0
   -0.4466    0.5383    0.0000 C   0  0  0  0  0  0  0  0  0  0  0  0
    0.3364   -0.7411    0.0000 C   0  0  0  0  0  0  0  0  0  0  0  0
   -0.3801   -2.0589    0.0000 C   0  0  0  0  0  0  0  0  0  0  0  0
    0.4029   -3.3383    0.0000 C   0  0  0  0  0  0  0  0  0  0  0  0
    1.9024   -3.2999    0.0000 C   0  0  0  0  0  0  0  0  0  0  0  0
    2.6189   -1.9821    0.0000 C   0  0  0  0  0  0  0  0  0  0  0  0
    4.1184   -1.9436    0.0000 N   0  0  0  0  0  4  0  0  0  0  0  0
    4.8349   -0.6258    0.0000 O   0  0  0  0  0  0  0  0  0  0  0  0
    4.9015   -3.2231    0.0000 O   0  0  0  0  0  1  0  0  0  0  0  0
    1.8359   -0.7027    0.0000 C   0  0  0  0  0  0  0  0  0  0  0  0
  1  2  1  0
  2  3  1  0
  3  4  1  0
  4  5  2  0
  4  6  1  0
  6  7  2  0
  7  8  1  0
  7  9  1  0
  9 10  1  0
 10 11  1  0
 10 12  2  0
 12 13  1  0
 13 14  2  0
 13 15  1  0
 15 16  1  0
 12 17  1  0
 17 18  1  1
 18 19  2  0
 19 20  1  0
 20 21  2  0
 21 22  1  0
 22 23  1  0
 23 24  2  0
 23 25  1  0
 22 26  2  0
 17  6  1  0
 26 18  1  0
M  CHG  2  23   1  25  -1
M  END
> <Identifier>
NITRENDIPINE

> <hERG>
0

$$$$

     RDKit          2D

 27 30  0  0  0  0  0  0  0  0999 V2000
   -0.3119   -2.8539    0.0000 C   0  0  0  0  0  0  0  0  0  0  0  0
   -1.1979   -1.6435    0.0000 O   0  0  0  0  0  0  0  0  0  0  0  0
   -0.5927   -0.2710    0.0000 C   0  0  0  0  0  0  0  0  0  0  0  0
   -1.4788    0.9393    0.0000 C   0  0  0  0  0  0  0  0  0  0  0  0
   -2.9700    0.7772    0.0000 N   0  0  0  0  0  0  0  0  0  0  0  0
   -3.8560    1.9875    0.0000 C   0  0  0  0  0  0  0  0  0  0  0  0
   -5.3472    1.8254    0.0000 C   0  0  0  0  0  0  0  0  0  0  0  0
   -5.9524    0.4529    0.0000 N   0  0  0  0  0  4  0  0  0  0  0  0
   -5.0664   -0.7575    0.0000 C   0  0  0  0  0  0  0  0  0  0  0  0
   -5.6715   -2.1300    0.0000 C   0  0  0  0  0  0  0  0  0  0  0  0
   -3.5752   -0.5953    0.0000 C   0  0  0  0  0  0  0  0  0  0  0  0
   -0.8736    2.3118    0.0000 C   0  0  0  0  0  0  0  0  0  0  0  0
   -1.7596    3.5222    0.0000 F   0  0  0  0  0  0  0  0  0  0  0  0
    0.6176    2.4740    0.0000 C   0  0  0  0  0  0  0  0  0  0  0  0
    1.5037    1.2637    0.0000 C   0  0  0  0  0  0  0  0  0  0  0  0
    0.8985   -0.1089    0.0000 C   0  0  0  0  0  0  0  0  0  0  0  0
    1.7845   -1.3192    0.0000 N   0  0  0  0  0  4  0  0  0  0  0  0
    1.1793   -2.6917    0.0000 C   0  0  0  0  0  0  0  0  0  0  0  0
    1.3415   -4.1829    0.0000 C   0  0  0  0  0  0  0  0  0  0  0  0
   -0.0310   -3.5777    0.0000 C   0  0  0  0  0  0  0  0  0  0  0  0
    3.2757   -1.1570    0.0000 C   0  0  0  0  0  0  0  0  0  0  0  0
    3.8809    0.2155    0.0000 C   0  0  0  0  0  0  0  0  0  0  0  0
    5.3721    0.3776    0.0000 C   0  0  0  0  0  0  0  0  0  0  0  0
    5.9773    1.7501    0.0000 O   0  0  0  0  0  0  0  0  0  0  0  0
    6.2581   -0.8327    0.0000 O   0  0  0  0  0  1  0  0  0  0  0  0
    2.9949    1.4258    0.0000 C   0  0  0  0  0  0  0  0  0  0  0  0
    3.6000    2.7983    0.0000 O   0  0  0  0  0  0  0  0  0  0  0  0
  1  2  1  0
  2  3  1  0
  3  4  2  0
  4  5  1  0
  5  6  1  0
  6  7  1  0
  7  8  1  0
  8  9  1  0
  9 10  1  1
  9 11  1  0
  4 12  1  0
 12 13  1  0
 12 14  2  0
 14 15  1  0
 15 16  2  0
 16 17  1  0
 17 18  1  0
 18 19  1  0
 19 20  1  0
 17 21  2  0
 21 22  1  0
 22 23  1  6
 23 24  2  0
 23 25  1  0
 22 26  1  0
 26 27  2  0
 16  3  1  0
 20 18  1  0
 11  5  1  0
 26 15  1  0
M  CHG  3   8   1  17   1  25  -1
M  END
> <Identifier>
GATIFLOXACIN

> <hERG>
0

$$$$

     RDKit          2D

 29 33  0  0  0  0  0  0  0  0999 V2000
    0.4328   -2.9368    0.0000 C   0  0  0  0  0  0  0  0  0  0  0  0
   -0.5094   -1.7697    0.0000 O   0  0  0  0  0  0  0  0  0  0  0  0
    0.0303   -0.3701    0.0000 C   0  0  0  0  0  0  0  0  0  0  0  0
   -0.9118    0.7971    0.0000 C   0  0  0  0  0  0  0  0  0  0  0  0
   -2.3937    0.5647    0.0000 N   0  0  0  0  0  0  0  0  0  0  0  0
   -3.4528    1.6270    0.0000 C   0  0  0  0  0  0  0  0  0  0  0  0
   -4.7903    0.9481    0.0000 C   0  0  0  0  0  0  0  0  0  0  0  0
   -6.1899    1.4878    0.0000 C   0  0  0  0  0  0  0  0  0  0  0  0
   -7.3570    0.5456    0.0000 C   0  0  0  0  0  0  0  0  0  0  0  0
   -7.1247   -0.9363    0.0000 C   0  0  0  0  0  0  0  0  0  0  0  0
   -5.7251   -1.4760    0.0000 N   0  0  0  0  0  4  0  0  0  0  0  0
   -4.5580   -0.5338    0.0000 C   0  0  0  0  0  0  0  0  0  0  0  0
   -3.0768   -0.7708    0.0000 C   0  0  0  0  0  0  0  0  0  0  0  0
   -0.3721    2.1966    0.0000 C   0  0  0  0  0  0  0  0  0  0  0  0
   -1.3143    3.3638    0.0000 F   0  0  0  0  0  0  0  0  0  0  0  0
    1.1098    2.4289    0.0000 C   0  0  0  0  0  0  0  0  0  0  0  0
    2.0519    1.2618    0.0000 C   0  0  0  0  0  0  0  0  0  0  0  0
    1.5122   -0.1378    0.0000 C   0  0  0  0  0  0  0  0  0  0  0  0
    2.4544   -1.3050    0.0000 N   0  0  0  0  0  4  0  0  0  0  0  0
    1.9147   -2.7045    0.0000 C   0  0  0  0  0  0  0  0  0  0  0  0
    2.1470   -4.1864    0.0000 C   0  0  0  0  0  0  0  0  0  0  0  0
    0.7475   -3.6467    0.0000 C   0  0  0  0  0  0  0  0  0  0  0  0
    3.9363   -1.0726    0.0000 C   0  0  0  0  0  0  0  0  0  0  0  0
    4.4760    0.3269    0.0000 C   0  0  0  0  0  0  0  0  0  0  0  0
    5.9579    0.5593    0.0000 C   0  0  0  0  0  0  0  0  0  0  0  0
    6.4976    1.9588    0.0000 O   0  0  0  0  0  0  0  0  0  0  0  0
    6.9001   -0.6079    0.0000 O   0  0  0  0  0  1  0  0  0  0  0  0
    3.5338    1.4941    0.0000 C   0  0  0  0  0  0  0  0  0  0  0  0
    4.0736    2.8937    0.0000 O   0  0  0  0  0  0  0  0  0  0  0  0
  1  2  1  0
  2  3  1  0
  3  4  2  0
  4  5  1  0
  5  6  1  0
  7  6  1  6
  7  8  1  0
  8  9  1  0
  9 10  1  0
 10 11  1  0
 11 12  1  0
 12 13  1  6
  4 14  1  0
 14 15  1  0
 14 16  2  0
 16 17  1  0
 17 18  2  0
 18 19  1  0
 19 20  1  0
 20 21  1  0
 21 22  1  0
 19 23  2  0
 23 24  1  0
 24 25  1  6
 25 26  2  0
 25 27  1  0
 24 28  1  0
 28 29  2  0
 18  3  1  0
 22 20  1  0
 13  5  1  0
 28 17  1  0
 12  7  1  0
M  CHG  3  11   1  19   1  27  -1
M  END
> <Identifier>
MOXIFLOXACIN

> <hERG>
0

$$$$

     RDKit          2D

 34 38  0  0  0  0  0  0  0  0999 V2000
   11.5145    2.1380    0.0000 C   0  0  0  0  0  0  0  0  0  0  0  0
   10.2038    2.8673    0.0000 O   0  0  0  0  0  0  0  0  0  0  0  0
    8.9168    2.0968    0.0000 C   0  0  0  0  0  0  0  0  0  0  0  0
    7.6060    2.8261    0.0000 C   0  0  0  0  0  0  0  0  0  0  0  0
    6.3190    2.0556    0.0000 C   0  0  0  0  0  0  0  0  0  0  0  0
    6.3428    0.5558    0.0000 C   0  0  0  0  0  0  0  0  0  0  0  0
    5.0559   -0.2147    0.0000 C   0  0  0  0  0  0  0  0  0  0  0  0
    3.7451    0.5146    0.0000 C   0  0  0  0  0  0  0  0  0  0  0  0
    2.4581   -0.2560    0.0000 N   0  0  0  0  0  0  0  0  0  0  0  0
    1.0783    0.3323    0.0000 C   0  0  0  0  0  0  0  0  0  0  0  0
    0.0924   -0.7982    0.0000 C   0  0  0  0  0  0  0  0  0  0  0  0
   -1.4017   -0.6651    0.0000 C   0  0  0  0  0  0  0  0  0  0  0  0
   -2.0334    0.6954    0.0000 C   0  0  0  0  0  0  0  0  0  0  0  0
   -3.5275    0.8285    0.0000 C   0  0  0  0  0  0  0  0  0  0  0  0
   -4.3898   -0.3988    0.0000 N   0  0  0  0  0  4  0  0  0  0  0  0
   -5.8839   -0.2657    0.0000 C   0  0  0  0  0  0  0  0  0  0  0  0
   -6.5157    1.0947    0.0000 C   0  0  0  0  0  0  0  0  0  0  0  0
   -8.0098    1.2278    0.0000 N   0  0  0  0  0  0  0  0  0  0  0  0
   -8.9957    0.0973    0.0000 C   0  0  0  0  0  0  0  0  0  0  0  0
  -10.3755    0.6856    0.0000 C   0  0  0  0  0  0  0  0  0  0  0  0
  -10.2424    2.1797    0.0000 N   0  0  0  0  0  0  0  0  0  0  0  0
   -8.7803    2.5148    0.0000 C   0  0  0  0  0  0  0  0  0  0  0  0
   -8.1920    3.8946    0.0000 O   0  0  0  0  0  0  0  0  0  0  0  0
   -3.7581   -1.7593    0.0000 C   0  0  0  0  0  0  0  0  0  0  0  0
   -2.2640   -1.8924    0.0000 C   0  0  0  0  0  0  0  0  0  0  0  0
    0.8629   -2.0851    0.0000 C   0  0  0  0  0  0  0  0  0  0  0  0
    0.4221   -3.5189    0.0000 C   0  0  0  0  0  0  0  0  0  0  0  0
    1.4433   -4.6176    0.0000 C   0  0  0  0  0  0  0  0  0  0  0  0
    1.0025   -6.0513    0.0000 Cl  0  0  0  0  0  0  0  0  0  0  0  0
    2.9054   -4.2825    0.0000 C   0  0  0  0  0  0  0  0  0  0  0  0
    3.3463   -2.8487    0.0000 C   0  0  0  0  0  0  0  0  0  0  0  0
    2.3250   -1.7500    0.0000 C   0  0  0  0  0  0  0  0  0  0  0  0
    3.7213    2.0144    0.0000 C   0  0  0  0  0  0  0  0  0  0  0  0
    5.0083    2.7849    0.0000 C   0  0  0  0  0  0  0  0  0  0  0  0
  1  2  1  0
  2  3  1  0
  3  4  1  0
  4  5  1  0
  5  6  2  0
  6  7  1  0
  7  8  2  0
  8  9  1  0
  9 10  1  0
 10 11  2  0
 11 12  1  0
 12 13  1  0
 13 14  1  0
 14 15  1  0
 15 16  1  0
 16 17  1  0
 17 18  1  0
 18 19  1  0
 19 20  1  0
 20 21  1  0
 21 22  1  0
 22 23  2  0
 15 24  1  0
 24 25  1  0
 11 26  1  0
 26 27  2  0
 27 28  1  0
 28 29  1  0
 28 30  2  0
 30 31  1  0
 31 32  2  0
  8 33  1  0
 33 34  2  0
 34  5  1  0
 32  9  1  0
 25 12  1  0
 32 26  1  0
 22 18  1  0
M  CHG  1  15   1
M  END
> <Identifier>
SERTINDOLE7

> <hERG>
0

$$$$

     RDKit          2D

 16 16  0  0  0  0  0  0  0  0999 V2000
   -4.9244   -0.1804    0.0000 C   0  0  0  0  0  0  0  0  0  0  0  0
   -3.6143    0.5502    0.0000 C   0  0  0  0  0  0  0  0  0  0  0  0
   -2.3266   -0.2190    0.0000 C   0  0  0  0  0  0  0  0  0  0  0  0
   -1.0165    0.5116    0.0000 C   0  0  0  0  0  0  0  0  0  0  0  0
   -0.9943    2.0114    0.0000 C   0  0  0  0  0  0  0  0  0  0  0  0
    0.2712   -0.2576    0.0000 C   0  0  0  0  0  0  0  0  0  0  0  0
   -0.7099   -1.3922    0.0000 C   0  0  0  0  0  0  0  0  0  0  0  0
   -2.1831   -1.1098    0.0000 C   0  0  0  0  0  0  0  0  0  0  0  0
    0.8051    1.1442    0.0000 C   0  0  0  0  0  0  0  0  0  0  0  0
   -0.1419    2.3074    0.0000 O   0  0  0  0  0  0  0  0  0  0  0  0
    2.2860    1.3827    0.0000 N   0  0  0  0  0  0  0  0  0  0  0  0
    3.2330    0.2194    0.0000 C   0  0  0  0  0  0  0  0  0  0  0  0
    4.7140    0.4579    0.0000 O   0  0  0  0  0  0  0  0  0  0  0  0
    2.6991   -1.1823    0.0000 N   0  0  0  0  0  0  0  0  0  0  0  0
    1.2182   -1.4208    0.0000 C   0  0  0  0  0  0  0  0  0  0  0  0
    0.6843   -2.8226    0.0000 O   0  0  0  0  0  0  0  0  0  0  0  0
  1  2  1  0
  2  3  1  0
  3  4  1  0
  4  5  1  1
  4  6  1  0
  6  7  1  0
  7  8  1  0
  6  9  1  0
  9 10  2  0
  9 11  1  0
 11 12  1  0
 12 13  2  0
 12 14  1  0
 14 15  1  0
 15 16  2  0
 15  6  1  0
M  END
> <Identifier>
PENTOBARBITAL

> <hERG>
0

$$$$

     RDKit          2D

 24 27  0  0  0  0  0  0  0  0999 V2000
    6.0017   -2.4195    0.0000 C   0  0  0  0  0  0  0  0  0  0  0  0
    4.6293   -1.8140    0.0000 N   0  0  0  0  0  4  0  0  0  0  0  0
    3.4188   -2.6998    0.0000 C   0  0  0  0  0  0  0  0  0  0  0  0
    2.0464   -2.0943    0.0000 C   0  0  0  0  0  0  0  0  0  0  0  0
    1.8846   -0.6031    0.0000 N   0  0  0  0  0  4  0  0  0  0  0  0
    0.5122    0.0024    0.0000 C   0  0  0  0  0  0  0  0  0  0  0  0
    0.4623    1.5016    0.0000 C   0  0  0  0  0  0  0  0  0  0  0  0
    1.8396    2.0958    0.0000 C   0  0  0  0  0  0  0  0  0  0  0  0
    2.0137    3.5856    0.0000 C   0  0  0  0  0  0  0  0  0  0  0  0
    0.8105    4.4813    0.0000 C   0  0  0  0  0  0  0  0  0  0  0  0
   -0.5668    3.8872    0.0000 C   0  0  0  0  0  0  0  0  0  0  0  0
   -0.7409    2.3973    0.0000 C   0  0  0  0  0  0  0  0  0  0  0  0
   -2.1914    2.0150    0.0000 N   0  0  0  0  0  0  0  0  0  0  0  0
   -2.7969    0.6427    0.0000 C   0  0  0  0  0  0  0  0  0  0  0  0
   -4.2956    0.7049    0.0000 C   0  0  0  0  0  0  0  0  0  0  0  0
   -5.0988   -0.5619    0.0000 C   0  0  0  0  0  0  0  0  0  0  0  0
   -4.4034   -1.8909    0.0000 C   0  0  0  0  0  0  0  0  0  0  0  0
   -5.2067   -3.1577    0.0000 Cl  0  0  0  0  0  0  0  0  0  0  0  0
   -2.9047   -1.9532    0.0000 C   0  0  0  0  0  0  0  0  0  0  0  0
   -2.1014   -0.6864    0.0000 C   0  0  0  0  0  0  0  0  0  0  0  0
   -0.6287   -0.9713    0.0000 N   0  0  0  0  0  0  0  0  0  0  0  0
   -0.2465   -2.4218    0.0000 O   0  0  0  0  0  0  0  0  0  0  0  0
    3.0952    0.2827    0.0000 C   0  0  0  0  0  0  0  0  0  0  0  0
    4.4675   -0.3228    0.0000 C   0  0  0  0  0  0  0  0  0  0  0  0
  1  2  1  0
  2  3  1  0
  3  4  1  0
  4  5  1  0
  6  5  1  1
  6  7  1  0
  7  8  2  0
  8  9  1  0
  9 10  2  0
 10 11  1  0
 11 12  2  0
 12 13  1  0
 13 14  1  0
 14 15  2  0
 15 16  1  0
 16 17  2  0
 17 18  1  0
 17 19  1  0
 19 20  2  0
 20 21  1  0
 21 22  1  0
  5 23  1  0
 23 24  1  0
 24  2  1  0
 21  6  1  0
 12  7  1  0
 20 14  1  0
M  CHG  2   2   1   5   1
M  END
> <Identifier>
CLOZAPINE_N_OXYDE

> <hERG>
0

$$$$

     RDKit          2D

 30 34  0  0  0  0  0  0  0  0999 V2000
   -7.7842    2.1078    0.0000 O   0  0  0  0  0  0  0  0  0  0  0  0
   -7.9780    0.6204    0.0000 C   0  0  0  0  0  0  0  0  0  0  0  0
   -9.2952   -0.0971    0.0000 N   0  0  0  0  0  0  0  0  0  0  0  0
   -9.0199   -1.5716    0.0000 C   0  0  0  0  0  0  0  0  0  0  0  0
   -7.5324   -1.7654    0.0000 C   0  0  0  0  0  0  0  0  0  0  0  0
   -6.8885   -0.4107    0.0000 N   0  0  0  0  0  0  0  0  0  0  0  0
   -5.4140   -0.1353    0.0000 C   0  0  0  0  0  0  0  0  0  0  0  0
   -4.4383   -1.2746    0.0000 C   0  0  0  0  0  0  0  0  0  0  0  0
   -2.9638   -0.9992    0.0000 N   0  0  0  0  0  4  0  0  0  0  0  0
   -1.9880   -2.1385    0.0000 C   0  0  0  0  0  0  0  0  0  0  0  0
   -0.5135   -1.8631    0.0000 C   0  0  0  0  0  0  0  0  0  0  0  0
   -0.0147   -0.4485    0.0000 C   0  0  0  0  0  0  0  0  0  0  0  0
    1.4598   -0.1731    0.0000 C   0  0  0  0  0  0  0  0  0  0  0  0
    2.5492   -1.2042    0.0000 C   0  0  0  0  0  0  0  0  0  0  0  0
    3.8665   -0.4866    0.0000 N   0  0  0  0  0  0  0  0  0  0  0  0
    5.2212   -1.1306    0.0000 C   0  0  0  0  0  0  0  0  0  0  0  0
    5.3410   -2.6258    0.0000 C   0  0  0  0  0  0  0  0  0  0  0  0
    6.6957   -3.2697    0.0000 C   0  0  0  0  0  0  0  0  0  0  0  0
    7.9307   -2.4184    0.0000 C   0  0  0  0  0  0  0  0  0  0  0  0
    7.8110   -0.9232    0.0000 C   0  0  0  0  0  0  0  0  0  0  0  0
    6.4563   -0.2793    0.0000 C   0  0  0  0  0  0  0  0  0  0  0  0
    3.5911    0.9879    0.0000 C   0  0  0  0  0  0  0  0  0  0  0  0
    4.5026    2.1791    0.0000 C   0  0  0  0  0  0  0  0  0  0  0  0
    3.9267    3.5642    0.0000 C   0  0  0  0  0  0  0  0  0  0  0  0
    2.4393    3.7579    0.0000 C   0  0  0  0  0  0  0  0  0  0  0  0
    1.8634    5.1430    0.0000 Cl  0  0  0  0  0  0  0  0  0  0  0  0
    1.5278    2.5667    0.0000 C   0  0  0  0  0  0  0  0  0  0  0  0
    2.1037    1.1816    0.0000 C   0  0  0  0  0  0  0  0  0  0  0  0
   -0.9905    0.6908    0.0000 C   0  0  0  0  0  0  0  0  0  0  0  0
   -2.4650    0.4154    0.0000 C   0  0  0  0  0  0  0  0  0  0  0  0
  1  2  2  0
  2  3  1  0
  3  4  1  0
  4  5  1  0
  5  6  1  0
  6  7  1  0
  7  8  1  0
  8  9  1  0
  9 10  1  0
 10 11  1  0
 11 12  1  0
 12 13  1  0
 13 14  2  0
 14 15  1  0
 15 16  1  0
 16 17  1  0
 17 18  1  0
 18 19  1  0
 19 20  1  0
 20 21  1  0
 15 22  1  0
 22 23  2  0
 23 24  1  0
 24 25  2  0
 25 26  1  0
 25 27  1  0
 27 28  2  0
 12 29  1  0
 29 30  1  0
  6  2  1  0
 30  9  1  0
 28 13  1  0
 21 16  1  0
 28 22  1  0
M  CHG  1   9   1
M  END
> <Identifier>
SERTINDOLE6

> <hERG>
0

$$$$

     RDKit          2D

 17 17  0  0  0  0  0  0  0  0999 V2000
   -6.6600    1.0689    0.0000 C   0  0  0  0  0  0  0  0  0  0  0  0
   -5.2209    1.4919    0.0000 C   0  0  0  0  0  0  0  0  0  0  0  0
   -4.1350    0.4571    0.0000 N   0  0  0  0  0  0  0  0  0  0  0  0
   -4.4882   -1.0007    0.0000 C   0  0  0  0  0  0  0  0  0  0  0  0
   -5.9273   -1.4237    0.0000 C   0  0  0  0  0  0  0  0  0  0  0  0
   -2.6959    0.8801    0.0000 C   0  0  0  0  0  0  0  0  0  0  0  0
   -1.6100   -0.1547    0.0000 C   0  0  0  0  0  0  0  0  0  0  0  0
   -0.1709    0.2684    0.0000 N   0  0  0  0  0  0  0  0  0  0  0  0
    0.9151   -0.7664    0.0000 C   0  0  0  0  0  0  0  0  0  0  0  0
    0.5619   -2.2243    0.0000 O   0  0  0  0  0  0  0  0  0  0  0  0
    2.3542   -0.3434    0.0000 C   0  0  0  0  0  0  0  0  0  0  0  0
    2.7074    1.1144    0.0000 C   0  0  0  0  0  0  0  0  0  0  0  0
    4.1465    1.5375    0.0000 C   0  0  0  0  0  0  0  0  0  0  0  0
    5.2324    0.5027    0.0000 C   0  0  0  0  0  0  0  0  0  0  0  0
    6.6715    0.9257    0.0000 N   0  0  0  0  0  0  0  0  0  0  0  0
    4.8792   -0.9552    0.0000 C   0  0  0  0  0  0  0  0  0  0  0  0
    3.4401   -1.3782    0.0000 C   0  0  0  0  0  0  0  0  0  0  0  0
  1  2  1  0
  2  3  1  0
  3  4  1  0
  4  5  1  0
  3  6  1  0
  6  7  1  0
  7  8  1  0
  8  9  1  0
  9 10  2  0
  9 11  1  0
 11 12  2  0
 12 13  1  0
 13 14  2  0
 14 15  1  0
 14 16  1  0
 16 17  2  0
 17 11  1  0
M  END
> <Identifier>
PROCAINAMIDE HYDROCHLORIDE

> <hERG>
0

$$$$

     RDKit          2D

 19 19  0  0  0  0  0  0  0  0999 V2000
   -8.7434    0.2892    0.0000 C   0  0  0  0  0  0  0  0  0  0  0  0
   -7.5759   -0.6526    0.0000 O   0  0  0  0  0  0  0  0  0  0  0  0
   -6.1766   -0.1124    0.0000 C   0  0  0  0  0  0  0  0  0  0  0  0
   -5.0091   -1.0542    0.0000 C   0  0  0  0  0  0  0  0  0  0  0  0
   -3.6097   -0.5140    0.0000 C   0  0  0  0  0  0  0  0  0  0  0  0
   -3.3779    0.9680    0.0000 C   0  0  0  0  0  0  0  0  0  0  0  0
   -1.9785    1.5082    0.0000 C   0  0  0  0  0  0  0  0  0  0  0  0
   -0.8110    0.5664    0.0000 C   0  0  0  0  0  0  0  0  0  0  0  0
    0.5883    1.1066    0.0000 O   0  0  0  0  0  0  0  0  0  0  0  0
    1.7558    0.1648    0.0000 C   0  0  0  0  0  0  0  0  0  0  0  0
    3.1552    0.7050    0.0000 C   0  0  0  0  0  0  0  0  0  0  0  0
    3.3870    2.1870    0.0000 O   0  0  0  0  0  0  0  0  0  0  0  0
    4.3227   -0.2368    0.0000 C   0  0  0  0  0  0  0  0  0  0  0  0
    5.7220    0.3034    0.0000 N   0  0  0  0  0  4  0  0  0  0  0  0
    6.8895   -0.6384    0.0000 C   0  0  0  0  0  0  0  0  0  0  0  0
    8.2889   -0.0982    0.0000 C   0  0  0  0  0  0  0  0  0  0  0  0
    6.6577   -2.1203    0.0000 C   0  0  0  0  0  0  0  0  0  0  0  0
   -1.0429   -0.9156    0.0000 C   0  0  0  0  0  0  0  0  0  0  0  0
   -2.4422   -1.4558    0.0000 C   0  0  0  0  0  0  0  0  0  0  0  0
  1  2  1  0
  2  3  1  0
  3  4  1  0
  4  5  1  0
  5  6  2  0
  6  7  1  0
  7  8  2  0
  8  9  1  0
  9 10  1  0
 10 11  1  0
 11 12  1  6
 11 13  1  0
 13 14  1  0
 14 15  1  0
 15 16  1  0
 15 17  1  0
  8 18  1  0
 18 19  2  0
 19  5  1  0
M  CHG  1  14   1
M  END
> <Identifier>
METOPROLOL

> <hERG>
0

$$$$

     RDKit          2D

 50 52  0  0  0  0  0  0  0  0999 V2000
   -4.8714   -4.6577    0.0000 C   0  0  0  0  0  0  0  0  0  0  0  0
   -3.4668   -5.1842    0.0000 C   0  0  0  0  0  0  0  0  0  0  0  0
   -2.3086   -4.2310    0.0000 C   0  0  0  0  0  0  0  0  0  0  0  0
   -2.9801   -2.8898    0.0000 O   0  0  0  0  0  0  0  0  0  0  0  0
   -3.0032   -1.3899    0.0000 C   0  0  0  0  0  0  0  0  0  0  0  0
   -4.4706   -1.0787    0.0000 O   0  0  0  0  0  0  0  0  0  0  0  0
   -2.3732   -0.0286    0.0000 C   0  0  0  0  0  0  0  0  0  0  0  0
   -3.6095    0.5137    0.0000 C   0  0  0  0  0  0  0  0  0  0  0  0
   -1.2150    0.9245    0.0000 C   0  0  0  0  0  0  0  0  0  0  0  0
   -1.8866    2.2658    0.0000 O   0  0  0  0  0  0  0  0  0  0  0  0
   -3.3839    2.3549    0.0000 C   0  0  0  0  0  0  0  0  0  0  0  0
   -4.0554    3.6962    0.0000 C   0  0  0  0  0  0  0  0  0  0  0  0
   -5.5528    3.7853    0.0000 C   0  0  0  0  0  0  0  0  0  0  0  0
   -6.9294    4.3811    0.0000 C   0  0  0  0  0  0  0  0  0  0  0  0
   -5.2051    5.2444    0.0000 O   0  0  0  0  0  0  0  0  0  0  0  0
   -6.2948    6.2751    0.0000 C   0  0  0  0  0  0  0  0  0  0  0  0
   -6.3786    2.5330    0.0000 C   0  0  0  0  0  0  0  0  0  0  0  0
   -7.8760    2.6221    0.0000 O   0  0  0  0  0  0  0  0  0  0  0  0
   -5.7071    1.1918    0.0000 C   0  0  0  0  0  0  0  0  0  0  0  0
   -6.5329   -0.0604    0.0000 C   0  0  0  0  0  0  0  0  0  0  0  0
   -4.2097    1.1027    0.0000 O   0  0  0  0  0  0  0  0  0  0  0  0
    0.2421    1.2808    0.0000 C   0  0  0  0  0  0  0  0  0  0  0  0
    0.2190    2.7806    0.0000 C   0  0  0  0  0  0  0  0  0  0  0  0
    1.7094    0.9695    0.0000 C   0  0  0  0  0  0  0  0  0  0  0  0
    2.3394    2.3308    0.0000 O   0  0  0  0  0  0  0  0  0  0  0  0
    3.8333    2.4659    0.0000 C   0  0  0  0  0  0  0  0  0  0  0  0
    4.6972    1.2397    0.0000 O   0  0  0  0  0  0  0  0  0  0  0  0
    6.1911    1.3748    0.0000 C   0  0  0  0  0  0  0  0  0  0  0  0
    7.0551    0.1486    0.0000 C   0  0  0  0  0  0  0  0  0  0  0  0
    6.8211    2.7361    0.0000 C   0  0  0  0  0  0  0  0  0  0  0  0
    5.9572    3.9623    0.0000 C   0  0  0  0  0  0  0  0  0  0  0  0
    6.5871    5.3236    0.0000 N   0  0  0  0  0  4  0  0  0  0  0  0
    8.0810    5.4587    0.0000 C   0  0  0  0  0  0  0  0  0  0  0  0
    4.4632    3.8272    0.0000 C   0  0  0  0  0  0  0  0  0  0  0  0
    3.5993    5.0534    0.0000 O   0  0  0  0  0  0  0  0  0  0  0  0
    2.8964    0.0524    0.0000 C   0  0  0  0  0  0  0  0  0  0  0  0
    3.3164    1.4924    0.0000 C   0  0  0  0  0  0  0  0  0  0  0  0
    4.3903    0.1875    0.0000 O   0  0  0  0  0  0  0  0  0  0  0  0
    3.5679   -1.2889    0.0000 C   0  0  0  0  0  0  0  0  0  0  0  0
    3.5910   -2.7887    0.0000 C   0  0  0  0  0  0  0  0  0  0  0  0
    5.0584   -3.0999    0.0000 C   0  0  0  0  0  0  0  0  0  0  0  0
    2.9610   -4.1500    0.0000 C   0  0  0  0  0  0  0  0  0  0  0  0
    4.1480   -5.0671    0.0000 O   0  0  0  0  0  0  0  0  0  0  0  0
    1.8028   -5.1031    0.0000 C   0  0  0  0  0  0  0  0  0  0  0  0
    2.4744   -6.4444    0.0000 C   0  0  0  0  0  0  0  0  0  0  0  0
    0.3457   -5.4594    0.0000 C   0  0  0  0  0  0  0  0  0  0  0  0
    0.3688   -6.9592    0.0000 O   0  0  0  0  0  0  0  0  0  0  0  0
   -1.1216   -5.1481    0.0000 C   0  0  0  0  0  0  0  0  0  0  0  0
   -0.8753   -6.6278    0.0000 C   0  0  0  0  0  0  0  0  0  0  0  0
   -2.4090   -5.9180    0.0000 O   0  0  0  0  0  0  0  0  0  0  0  0
  1  2  1  0
  3  2  1  1
  3  4  1  0
  4  5  1  0
  5  6  2  0
  5  7  1  0
  7  8  1  1
  7  9  1  0
  9 10  1  1
 11 10  1  6
 11 12  1  0
 12 13  1  0
 13 14  1  1
 13 15  1  0
 15 16  1  0
 13 17  1  0
 17 18  1  6
 17 19  1  0
 19 20  1  1
 19 21  1  0
  9 22  1  0
 22 23  1  6
 22 24  1  0
 24 25  1  1
 26 25  1  1
 26 27  1  0
 27 28  1  0
 28 29  1  1
 28 30  1  0
 30 31  1  0
 31 32  1  1
 32 33  1  0
 31 34  1  0
 34 35  1  1
 24 36  1  0
 36 37  1  1
 36 38  1  0
 36 39  1  0
 39 40  1  0
 40 41  1  1
 40 42  1  0
 42 43  2  0
 42 44  1  0
 44 45  1  6
 44 46  1  0
 46 47  1  1
 46 48  1  0
 48 49  1  1
 48 50  1  0
 48  3  1  0
 21 11  1  0
 34 26  1  0
M  CHG  1  32   1
M  END
> <Identifier>
N-DEMETHYL-ERYTHROMYCIN

> <hERG>
0

$$$$

     RDKit          2D

 50 52  0  0  0  0  0  0  0  0999 V2000
   -6.1436   -3.1831    0.0000 C   0  0  0  0  0  0  0  0  0  0  0  0
   -4.9229   -4.0548    0.0000 C   0  0  0  0  0  0  0  0  0  0  0  0
   -3.5576   -3.4335    0.0000 C   0  0  0  0  0  0  0  0  0  0  0  0
   -3.8595   -1.9642    0.0000 O   0  0  0  0  0  0  0  0  0  0  0  0
   -3.4941   -0.5094    0.0000 C   0  0  0  0  0  0  0  0  0  0  0  0
   -4.8311    0.1706    0.0000 O   0  0  0  0  0  0  0  0  0  0  0  0
   -2.5336    0.6428    0.0000 C   0  0  0  0  0  0  0  0  0  0  0  0
   -3.5876    1.4863    0.0000 C   0  0  0  0  0  0  0  0  0  0  0  0
   -1.1683    1.2641    0.0000 C   0  0  0  0  0  0  0  0  0  0  0  0
   -1.4702    2.7334    0.0000 O   0  0  0  0  0  0  0  0  0  0  0  0
   -2.8936    3.2065    0.0000 C   0  0  0  0  0  0  0  0  0  0  0  0
   -3.1956    4.6758    0.0000 C   0  0  0  0  0  0  0  0  0  0  0  0
   -4.6190    5.1490    0.0000 C   0  0  0  0  0  0  0  0  0  0  0  0
   -5.7947    6.0805    0.0000 C   0  0  0  0  0  0  0  0  0  0  0  0
   -3.9058    6.4686    0.0000 O   0  0  0  0  0  0  0  0  0  0  0  0
   -5.7405    4.1529    0.0000 C   0  0  0  0  0  0  0  0  0  0  0  0
   -7.1639    4.6260    0.0000 O   0  0  0  0  0  0  0  0  0  0  0  0
   -5.4385    2.6836    0.0000 C   0  0  0  0  0  0  0  0  0  0  0  0
   -6.5600    1.6874    0.0000 C   0  0  0  0  0  0  0  0  0  0  0  0
   -4.0151    2.2104    0.0000 O   0  0  0  0  0  0  0  0  0  0  0  0
    0.3313    1.2315    0.0000 C   0  0  0  0  0  0  0  0  0  0  0  0
    0.6968    2.6863    0.0000 C   0  0  0  0  0  0  0  0  0  0  0  0
    1.6683    0.5514    0.0000 C   0  0  0  0  0  0  0  0  0  0  0  0
    2.6288    1.7036    0.0000 O   0  0  0  0  0  0  0  0  0  0  0  0
    4.1069    1.4479    0.0000 C   0  0  0  0  0  0  0  0  0  0  0  0
    4.6244    0.0400    0.0000 O   0  0  0  0  0  0  0  0  0  0  0  0
    6.1025   -0.2158    0.0000 C   0  0  0  0  0  0  0  0  0  0  0  0
    6.6200   -1.6237    0.0000 C   0  0  0  0  0  0  0  0  0  0  0  0
    7.0630    0.9364    0.0000 C   0  0  0  0  0  0  0  0  0  0  0  0
    6.5454    2.3443    0.0000 C   0  0  0  0  0  0  0  0  0  0  0  0
    7.5059    3.4964    0.0000 N   0  0  0  0  0  4  0  0  0  0  0  0
    8.9839    3.2407    0.0000 C   0  0  0  0  0  0  0  0  0  0  0  0
    6.9884    4.9043    0.0000 C   0  0  0  0  0  0  0  0  0  0  0  0
    5.0674    2.6000    0.0000 C   0  0  0  0  0  0  0  0  0  0  0  0
    4.5498    4.0079    0.0000 O   0  0  0  0  0  0  0  0  0  0  0  0
    2.5779   -0.6413    0.0000 C   0  0  0  0  0  0  0  0  0  0  0  0
    3.3559    0.6411    0.0000 C   0  0  0  0  0  0  0  0  0  0  0  0
    4.0559   -0.8971    0.0000 O   0  0  0  0  0  0  0  0  0  0  0  0
    2.8798   -2.1106    0.0000 C   0  0  0  0  0  0  0  0  0  0  0  0
    2.5143   -3.5654    0.0000 C   0  0  0  0  0  0  0  0  0  0  0  0
    3.8513   -4.2455    0.0000 C   0  0  0  0  0  0  0  0  0  0  0  0
    1.5538   -4.7176    0.0000 C   0  0  0  0  0  0  0  0  0  0  0  0
    2.4634   -5.9104    0.0000 O   0  0  0  0  0  0  0  0  0  0  0  0
    0.1886   -5.3389    0.0000 C   0  0  0  0  0  0  0  0  0  0  0  0
    0.4905   -6.8082    0.0000 C   0  0  0  0  0  0  0  0  0  0  0  0
   -1.3111   -5.3063    0.0000 C   0  0  0  0  0  0  0  0  0  0  0  0
   -1.6766   -6.7611    0.0000 O   0  0  0  0  0  0  0  0  0  0  0  0
   -2.6481   -4.6263    0.0000 C   0  0  0  0  0  0  0  0  0  0  0  0
   -2.7926   -6.1193    0.0000 C   0  0  0  0  0  0  0  0  0  0  0  0
   -4.0907   -5.0372    0.0000 O   0  0  0  0  0  0  0  0  0  0  0  0
  1  2  1  0
  3  2  1  1
  3  4  1  0
  4  5  1  0
  5  6  2  0
  5  7  1  0
  7  8  1  6
  7  9  1  0
  9 10  1  6
 11 10  1  6
 11 12  1  0
 12 13  1  0
 13 14  1  1
 13 15  1  0
 13 16  1  0
 16 17  1  1
 16 18  1  0
 18 19  1  6
 18 20  1  0
  9 21  1  0
 21 22  1  1
 21 23  1  0
 23 24  1  6
 25 24  1  6
 25 26  1  0
 26 27  1  0
 27 28  1  1
 27 29  1  0
 29 30  1  0
 30 31  1  6
 31 32  1  0
 31 33  1  0
 30 34  1  0
 34 35  1  6
 23 36  1  0
 36 37  1  1
 36 38  1  0
 36 39  1  0
 39 40  1  0
 40 41  1  1
 40 42  1  0
 42 43  2  0
 42 44  1  0
 44 45  1  6
 44 46  1  0
 46 47  1  1
 46 48  1  0
 48 49  1  6
 48 50  1  0
 48  3  1  0
 20 11  1  0
 34 25  1  0
M  CHG  1  31   1
M  END
> <Identifier>
N-DESMETHYLERYTHROMYCIN

> <hERG>
0

$$$$

     RDKit          2D

 28 30  0  0  0  0  0  0  0  0999 V2000
   -2.6176   -1.6220    0.0000 N   0  0  0  0  0  0  0  0  0  0  0  0
   -2.1742   -0.1890    0.0000 C   0  0  0  0  0  0  0  0  0  0  0  0
   -0.7116    0.1435    0.0000 C   0  0  0  0  0  0  0  0  0  0  0  0
    0.3078   -0.9569    0.0000 C   0  0  0  0  0  0  0  0  0  0  0  0
   -0.1356   -2.3899    0.0000 O   0  0  0  0  0  0  0  0  0  0  0  0
    1.7704   -0.6244    0.0000 N   0  0  0  0  0  0  0  0  0  0  0  0
    2.7898   -1.7248    0.0000 C   0  0  0  0  0  0  0  0  0  0  0  0
    4.2524   -1.3923    0.0000 C   0  0  0  0  0  0  0  0  0  0  0  0
    4.6958    0.0407    0.0000 N   0  0  0  0  0  0  0  0  0  0  0  0
    3.6765    1.1411    0.0000 C   0  0  0  0  0  0  0  0  0  0  0  0
    4.4080    2.4506    0.0000 N   0  0  0  0  0  0  0  0  0  0  0  0
    5.8795    2.1595    0.0000 N   0  0  0  0  0  0  0  0  0  0  0  0
    6.0574    0.6701    0.0000 C   0  0  0  0  0  0  0  0  0  0  0  0
    7.3668   -0.0615    0.0000 C   0  0  0  0  0  0  0  0  0  0  0  0
    8.6763   -0.7931    0.0000 F   0  0  0  0  0  0  0  0  0  0  0  0
    8.0984    1.2480    0.0000 F   0  0  0  0  0  0  0  0  0  0  0  0
    6.6352   -1.3710    0.0000 F   0  0  0  0  0  0  0  0  0  0  0  0
    2.2138    0.8086    0.0000 C   0  0  0  0  0  0  0  0  0  0  0  0
   -3.1936    0.9114    0.0000 C   0  0  0  0  0  0  0  0  0  0  0  0
   -4.6562    0.5789    0.0000 C   0  0  0  0  0  0  0  0  0  0  0  0
   -5.6756    1.6793    0.0000 C   0  0  0  0  0  0  0  0  0  0  0  0
   -7.1382    1.3468    0.0000 C   0  0  0  0  0  0  0  0  0  0  0  0
   -8.1576    2.4472    0.0000 F   0  0  0  0  0  0  0  0  0  0  0  0
   -7.5816   -0.0862    0.0000 C   0  0  0  0  0  0  0  0  0  0  0  0
   -9.0443   -0.4188    0.0000 F   0  0  0  0  0  0  0  0  0  0  0  0
   -6.5623   -1.1867    0.0000 C   0  0  0  0  0  0  0  0  0  0  0  0
   -5.0996   -0.8541    0.0000 C   0  0  0  0  0  0  0  0  0  0  0  0
   -4.0803   -1.9546    0.0000 F   0  0  0  0  0  0  0  0  0  0  0  0
  2  1  1  6
  2  3  1  0
  3  4  1  0
  4  5  2  0
  4  6  1  0
  6  7  1  0
  7  8  1  0
  8  9  1  0
  9 10  1  0
 10 11  2  0
 11 12  1  0
 12 13  2  0
 13 14  1  0
 14 15  1  0
 14 16  1  0
 14 17  1  0
 10 18  1  0
  2 19  1  0
 19 20  1  0
 20 21  2  0
 21 22  1  0
 22 23  1  0
 22 24  2  0
 24 25  1  0
 24 26  1  0
 26 27  2  0
 27 28  1  0
 18  6  1  0
 27 20  1  0
 13  9  1  0
M  END
> <Identifier>
SITAGLIPTIN

> <hERG>
0

$$$$

     RDKit          2D

 50 52  0  0  0  0  0  0  0  0999 V2000
   -6.1436   -3.1831    0.0000 C   0  0  0  0  0  0  0  0  0  0  0  0
   -4.9229   -4.0548    0.0000 C   0  0  0  0  0  0  0  0  0  0  0  0
   -3.5576   -3.4335    0.0000 C   0  0  0  0  0  0  0  0  0  0  0  0
   -3.8595   -1.9642    0.0000 O   0  0  0  0  0  0  0  0  0  0  0  0
   -3.4941   -0.5094    0.0000 C   0  0  0  0  0  0  0  0  0  0  0  0
   -4.8311    0.1706    0.0000 O   0  0  0  0  0  0  0  0  0  0  0  0
   -2.5336    0.6428    0.0000 C   0  0  0  0  0  0  0  0  0  0  0  0
   -3.5876    1.4863    0.0000 C   0  0  0  0  0  0  0  0  0  0  0  0
   -1.1683    1.2641    0.0000 C   0  0  0  0  0  0  0  0  0  0  0  0
   -1.4702    2.7334    0.0000 O   0  0  0  0  0  0  0  0  0  0  0  0
   -2.8936    3.2065    0.0000 C   0  0  0  0  0  0  0  0  0  0  0  0
   -3.1956    4.6758    0.0000 C   0  0  0  0  0  0  0  0  0  0  0  0
   -4.6190    5.1490    0.0000 C   0  0  0  0  0  0  0  0  0  0  0  0
   -5.7947    6.0805    0.0000 C   0  0  0  0  0  0  0  0  0  0  0  0
   -3.9058    6.4686    0.0000 O   0  0  0  0  0  0  0  0  0  0  0  0
   -5.7405    4.1529    0.0000 C   0  0  0  0  0  0  0  0  0  0  0  0
   -7.1639    4.6260    0.0000 O   0  0  0  0  0  0  0  0  0  0  0  0
   -5.4385    2.6836    0.0000 C   0  0  0  0  0  0  0  0  0  0  0  0
   -6.5600    1.6874    0.0000 C   0  0  0  0  0  0  0  0  0  0  0  0
   -4.0151    2.2104    0.0000 O   0  0  0  0  0  0  0  0  0  0  0  0
    0.3313    1.2315    0.0000 C   0  0  0  0  0  0  0  0  0  0  0  0
    0.6968    2.6863    0.0000 C   0  0  0  0  0  0  0  0  0  0  0  0
    1.6683    0.5514    0.0000 C   0  0  0  0  0  0  0  0  0  0  0  0
    2.6288    1.7036    0.0000 O   0  0  0  0  0  0  0  0  0  0  0  0
    4.1069    1.4479    0.0000 C   0  0  0  0  0  0  0  0  0  0  0  0
    4.6244    0.0400    0.0000 O   0  0  0  0  0  0  0  0  0  0  0  0
    6.1025   -0.2158    0.0000 C   0  0  0  0  0  0  0  0  0  0  0  0
    6.6200   -1.6237    0.0000 C   0  0  0  0  0  0  0  0  0  0  0  0
    7.0630    0.9364    0.0000 C   0  0  0  0  0  0  0  0  0  0  0  0
    6.5454    2.3443    0.0000 C   0  0  0  0  0  0  0  0  0  0  0  0
    7.5059    3.4964    0.0000 N   0  0  0  0  0  0  0  0  0  0  0  0
    8.9839    3.2407    0.0000 C   0  0  0  0  0  0  0  0  0  0  0  0
    6.9884    4.9043    0.0000 C   0  0  0  0  0  0  0  0  0  0  0  0
    5.0674    2.6000    0.0000 C   0  0  0  0  0  0  0  0  0  0  0  0
    4.5498    4.0079    0.0000 O   0  0  0  0  0  0  0  0  0  0  0  0
    2.5779   -0.6413    0.0000 C   0  0  0  0  0  0  0  0  0  0  0  0
    3.3559    0.6411    0.0000 C   0  0  0  0  0  0  0  0  0  0  0  0
    4.0559   -0.8971    0.0000 O   0  0  0  0  0  0  0  0  0  0  0  0
    2.8798   -2.1106    0.0000 C   0  0  0  0  0  0  0  0  0  0  0  0
    2.5143   -3.5654    0.0000 C   0  0  0  0  0  0  0  0  0  0  0  0
    3.8513   -4.2455    0.0000 C   0  0  0  0  0  0  0  0  0  0  0  0
    1.5538   -4.7176    0.0000 C   0  0  0  0  0  0  0  0  0  0  0  0
    2.4634   -5.9104    0.0000 O   0  0  0  0  0  0  0  0  0  0  0  0
    0.1886   -5.3389    0.0000 C   0  0  0  0  0  0  0  0  0  0  0  0
    0.4905   -6.8082    0.0000 C   0  0  0  0  0  0  0  0  0  0  0  0
   -1.3111   -5.3063    0.0000 C   0  0  0  0  0  0  0  0  0  0  0  0
   -1.6766   -6.7611    0.0000 O   0  0  0  0  0  0  0  0  0  0  0  0
   -2.6481   -4.6263    0.0000 C   0  0  0  0  0  0  0  0  0  0  0  0
   -2.7926   -6.1193    0.0000 C   0  0  0  0  0  0  0  0  0  0  0  0
   -4.0907   -5.0372    0.0000 O   0  0  0  0  0  0  0  0  0  0  0  0
  1  2  1  0
  3  2  1  1
  3  4  1  0
  4  5  1  0
  5  6  2  0
  5  7  1  0
  7  8  1  6
  7  9  1  0
  9 10  1  1
 11 10  1  6
 11 12  1  0
 12 13  1  0
 13 14  1  1
 13 15  1  0
 13 16  1  0
 16 17  1  6
 16 18  1  0
 18 19  1  1
 18 20  1  0
  9 21  1  0
 21 22  1  6
 21 23  1  0
 23 24  1  1
 25 24  1  1
 25 26  1  0
 26 27  1  0
 27 28  1  1
 27 29  1  0
 29 30  1  0
 30 31  1  1
 31 32  1  0
 31 33  1  0
 30 34  1  0
 34 35  1  6
 23 36  1  0
 36 37  1  1
 36 38  1  0
 36 39  1  0
 39 40  1  0
 40 41  1  1
 40 42  1  0
 42 43  2  0
 42 44  1  0
 44 45  1  6
 44 46  1  0
 46 47  1  1
 46 48  1  0
 48 49  1  1
 48 50  1  0
 48  3  1  0
 20 11  1  0
 34 25  1  0
M  END
> <Identifier>
N-DEMETHYLERYTHROMYCIN

> <hERG>
0

$$$$

     RDKit          2D

 18 19  0  0  0  0  0  0  0  0999 V2000
   -1.3237   -2.3224    0.0000 C   0  0  0  0  0  0  0  0  0  0  0  0
   -2.3120   -1.1940    0.0000 C   0  0  0  0  0  0  0  0  0  0  0  0
   -3.7833   -1.4857    0.0000 C   0  0  0  0  0  0  0  0  0  0  0  0
   -4.7716   -0.3572    0.0000 C   0  0  0  0  0  0  0  0  0  0  0  0
   -4.2885    1.0628    0.0000 C   0  0  0  0  0  0  0  0  0  0  0  0
   -2.8171    1.3545    0.0000 C   0  0  0  0  0  0  0  0  0  0  0  0
   -2.3340    2.7746    0.0000 C   0  0  0  0  0  0  0  0  0  0  0  0
   -1.8289    0.2261    0.0000 C   0  0  0  0  0  0  0  0  0  0  0  0
   -0.3575    0.5177    0.0000 N   0  0  0  0  0  0  0  0  0  0  0  0
    0.6308   -0.6107    0.0000 C   0  0  0  0  0  0  0  0  0  0  0  0
    0.1477   -2.0308    0.0000 O   0  0  0  0  0  0  0  0  0  0  0  0
    2.1022   -0.3190    0.0000 C   0  0  0  0  0  0  0  0  0  0  0  0
    3.0904   -1.4475    0.0000 C   0  0  0  0  0  0  0  0  0  0  0  0
    4.5618   -1.1558    0.0000 C   0  0  0  0  0  0  0  0  0  0  0  0
    5.0449    0.2643    0.0000 C   0  0  0  0  0  0  0  0  0  0  0  0
    4.0566    1.3927    0.0000 C   0  0  0  0  0  0  0  0  0  0  0  0
    2.5853    1.1010    0.0000 N   0  0  0  0  0  0  0  0  0  0  0  0
    1.5970    2.2295    0.0000 C   0  0  0  0  0  0  0  0  0  0  0  0
  1  2  1  0
  2  3  2  0
  3  4  1  0
  4  5  2  0
  5  6  1  0
  6  7  1  0
  6  8  2  0
  8  9  1  0
  9 10  1  0
 10 11  2  0
 12 10  1  1
 12 13  1  0
 13 14  1  0
 14 15  1  0
 15 16  1  0
 16 17  1  0
 17 18  1  0
  8  2  1  0
 17 12  1  0
M  END
> <Identifier>
MEPIVACAINE (RACEMATE)

> <hERG>
0

$$$$

     RDKit          2D

 26 30  0  0  0  0  0  0  0  0999 V2000
    2.0927    3.9394    0.0000 C   0  0  0  0  0  0  0  0  0  0  0  0
    1.3604    2.6303    0.0000 N   0  0  0  0  0  4  0  0  0  0  0  0
   -0.1110    2.9223    0.0000 C   0  0  0  0  0  0  0  0  0  0  0  0
   -1.4729    2.2936    0.0000 C   0  0  0  0  0  0  0  0  0  0  0  0
   -2.2052    0.9845    0.0000 C   0  0  0  0  0  0  0  0  0  0  0  0
   -3.5836    1.5760    0.0000 C   0  0  0  0  0  0  0  0  0  0  0  0
   -4.7851    0.6779    0.0000 C   0  0  0  0  0  0  0  0  0  0  0  0
   -4.6081   -0.8116    0.0000 C   0  0  0  0  0  0  0  0  0  0  0  0
   -3.2296   -1.4031    0.0000 C   0  0  0  0  0  0  0  0  0  0  0  0
   -2.0282   -0.5050    0.0000 C   0  0  0  0  0  0  0  0  0  0  0  0
   -1.0094   -1.6060    0.0000 C   0  0  0  0  0  0  0  0  0  0  0  0
   -1.7417   -2.9151    0.0000 O   0  0  0  0  0  0  0  0  0  0  0  0
    0.4619   -1.8979    0.0000 C   0  0  0  0  0  0  0  0  0  0  0  0
    1.8238   -1.2693    0.0000 C   0  0  0  0  0  0  0  0  0  0  0  0
    2.5914   -2.5580    0.0000 C   0  0  0  0  0  0  0  0  0  0  0  0
    4.0912   -2.5377    0.0000 C   0  0  0  0  0  0  0  0  0  0  0  0
    4.8235   -1.2286    0.0000 C   0  0  0  0  0  0  0  0  0  0  0  0
    4.0560    0.0602    0.0000 C   0  0  0  0  0  0  0  0  0  0  0  0
    2.5561    0.0398    0.0000 C   0  0  0  0  0  0  0  0  0  0  0  0
    2.3791    1.5293    0.0000 C   0  0  0  0  0  0  0  0  0  0  0  0
    5.0445    1.1884    0.0000 O   0  0  0  0  0  0  0  0  0  0  0  0
    6.4229    0.5970    0.0000 C   0  0  0  0  0  0  0  0  0  0  0  0
    6.2864   -0.8968    0.0000 O   0  0  0  0  0  0  0  0  0  0  0  0
   -5.9700   -1.4403    0.0000 O   0  0  0  0  0  0  0  0  0  0  0  0
   -6.9887   -0.3393    0.0000 C   0  0  0  0  0  0  0  0  0  0  0  0
   -6.2564    0.9698    0.0000 O   0  0  0  0  0  0  0  0  0  0  0  0
  1  2  1  0
  2  3  1  0
  3  4  1  0
  4  5  1  0
  5  6  2  0
  6  7  1  0
  7  8  2  0
  8  9  1  0
  9 10  2  0
 10 11  1  0
 11 12  2  0
 11 13  1  0
 13 14  1  0
 14 15  2  0
 15 16  1  0
 16 17  2  0
 17 18  1  0
 18 19  2  0
 19 20  1  0
 18 21  1  0
 21 22  1  0
 22 23  1  0
  8 24  1  0
 24 25  1  0
 25 26  1  0
 20  2  1  0
 10  5  1  0
 19 14  1  0
 26  7  1  0
 23 17  1  0
M  CHG  1   2   1
M  END
> <Identifier>
PROTOPINE

> <hERG>
0

$$$$

     RDKit          2D

 19 22  0  0  0  0  0  0  0  0999 V2000
   -2.9595   -2.6391    0.0000 N   0  0  0  0  0  0  0  0  0  0  0  0
   -1.4773   -2.4088    0.0000 C   0  0  0  0  0  0  0  0  0  0  0  0
   -0.4197   -3.4726    0.0000 N   0  0  0  0  0  4  0  0  0  0  0  0
    0.9188   -2.7956    0.0000 C   0  0  0  0  0  0  0  0  0  0  0  0
    0.6885   -1.3133    0.0000 C   0  0  0  0  0  0  0  0  0  0  0  0
    1.7986   -0.3046    0.0000 C   0  0  0  0  0  0  0  0  0  0  0  0
    3.1432   -0.9695    0.0000 C   0  0  0  0  0  0  0  0  0  0  0  0
    4.3913   -0.1375    0.0000 C   0  0  0  0  0  0  0  0  0  0  0  0
    4.2948    1.3594    0.0000 C   0  0  0  0  0  0  0  0  0  0  0  0
    2.9502    2.0243    0.0000 C   0  0  0  0  0  0  0  0  0  0  0  0
    1.7021    1.1923    0.0000 C   0  0  0  0  0  0  0  0  0  0  0  0
    0.4716    2.0501    0.0000 C   0  0  0  0  0  0  0  0  0  0  0  0
   -0.9662    1.6230    0.0000 C   0  0  0  0  0  0  0  0  0  0  0  0
   -1.8892    2.8054    0.0000 C   0  0  0  0  0  0  0  0  0  0  0  0
   -3.3747    2.5973    0.0000 C   0  0  0  0  0  0  0  0  0  0  0  0
   -3.9372    1.2068    0.0000 C   0  0  0  0  0  0  0  0  0  0  0  0
   -3.0143    0.0243    0.0000 C   0  0  0  0  0  0  0  0  0  0  0  0
   -1.5288    0.2324    0.0000 C   0  0  0  0  0  0  0  0  0  0  0  0
   -0.7924   -1.0743    0.0000 N   0  0  0  0  0  0  0  0  0  0  0  0
  1  2  1  0
  2  3  2  0
  3  4  1  0
  5  4  1  6
  5  6  1  0
  6  7  2  0
  7  8  1  0
  8  9  2  0
  9 10  1  0
 10 11  2  0
 11 12  1  0
 12 13  1  0
 13 14  2  0
 14 15  1  0
 15 16  2  0
 16 17  1  0
 17 18  2  0
 18 19  1  0
 19  2  1  0
 19  5  1  0
 11  6  1  0
 18 13  1  0
M  CHG  1   3   1
M  END
> <Identifier>
EPINASTINE

> <hERG>
0

$$$$

     RDKit          2D

 13 14  0  0  0  0  0  0  0  0999 V2000
   -4.2895    0.2808    0.0000 C   0  0  0  0  0  0  0  0  0  0  0  0
   -2.8361    0.6516    0.0000 O   0  0  0  0  0  0  0  0  0  0  0  0
   -1.7882   -0.4218    0.0000 C   0  0  0  0  0  0  0  0  0  0  0  0
   -2.1938   -1.8659    0.0000 O   0  0  0  0  0  0  0  0  0  0  0  0
   -0.3348   -0.0510    0.0000 C   0  0  0  0  0  0  0  0  0  0  0  0
    0.0708    1.3932    0.0000 C   0  0  0  0  0  0  0  0  0  0  0  0
    1.5243    1.7640    0.0000 C   0  0  0  0  0  0  0  0  0  0  0  0
    2.4497    0.5712    0.0000 C   0  0  0  0  0  0  0  0  0  0  0  0
    3.1146   -0.7734    0.0000 C   0  0  0  0  0  0  0  0  0  0  0  0
    2.0413   -1.8213    0.0000 C   0  0  0  0  0  0  0  0  0  0  0  0
    0.7131   -1.1243    0.0000 C   0  0  0  0  0  0  0  0  0  0  0  0
    0.9655    0.3543    0.0000 N   0  0  0  0  0  4  0  0  0  0  0  0
    0.5632    1.0425    0.0000 C   0  0  0  0  0  0  0  0  0  0  0  0
  1  2  1  0
  2  3  1  0
  3  4  2  0
  3  5  1  0
  5  6  2  0
  6  7  1  0
  8  7  1  6
  8  9  1  0
  9 10  1  0
 11 10  1  1
 11 12  1  0
 12 13  1  0
 11  5  1  0
 12  8  1  0
M  CHG  1  12   1
M  END
> <Identifier>
METHYLECGONIDINE

> <hERG>
0

$$$$

     RDKit          2D

 32 36  0  0  0  0  0  0  0  0999 V2000
   -3.2086    5.8900    0.0000 C   0  0  0  0  0  0  0  0  0  0  0  0
   -4.2343    4.7954    0.0000 C   0  0  0  0  0  0  0  0  0  0  0  0
   -3.7992    3.3599    0.0000 C   0  0  0  0  0  0  0  0  0  0  0  0
   -4.8248    2.2654    0.0000 C   0  0  0  0  0  0  0  0  0  0  0  0
   -4.3898    0.8298    0.0000 C   0  0  0  0  0  0  0  0  0  0  0  0
   -5.2954   -0.3659    0.0000 N   0  0  0  0  0  0  0  0  0  0  0  0
   -4.4380   -1.5967    0.0000 C   0  0  0  0  0  0  0  0  0  0  0  0
   -3.5806   -2.8275    0.0000 C   0  0  0  0  0  0  0  0  0  0  0  0
   -4.4862   -4.0233    0.0000 C   0  0  0  0  0  0  0  0  0  0  0  0
   -5.9033   -3.5315    0.0000 C   0  0  0  0  0  0  0  0  0  0  0  0
   -5.8735   -2.0318    0.0000 C   0  0  0  0  0  0  0  0  0  0  0  0
   -3.0025   -1.1617    0.0000 C   0  0  0  0  0  0  0  0  0  0  0  0
   -1.8067   -2.0673    0.0000 O   0  0  0  0  0  0  0  0  0  0  0  0
   -2.9727    0.3381    0.0000 N   0  0  0  0  0  0  0  0  0  0  0  0
   -1.7419    1.1954    0.0000 C   0  0  0  0  0  0  0  0  0  0  0  0
   -0.3839    0.5582    0.0000 C   0  0  0  0  0  0  0  0  0  0  0  0
   -0.2568   -0.9364    0.0000 C   0  0  0  0  0  0  0  0  0  0  0  0
    1.1011   -1.5736    0.0000 C   0  0  0  0  0  0  0  0  0  0  0  0
    2.3319   -0.7162    0.0000 C   0  0  0  0  0  0  0  0  0  0  0  0
    3.6898   -1.3534    0.0000 C   0  0  0  0  0  0  0  0  0  0  0  0
    3.8169   -2.8480    0.0000 C   0  0  0  0  0  0  0  0  0  0  0  0
    5.1749   -3.4853    0.0000 C   0  0  0  0  0  0  0  0  0  0  0  0
    6.4057   -2.6279    0.0000 C   0  0  0  0  0  0  0  0  0  0  0  0
    6.2786   -1.1333    0.0000 C   0  0  0  0  0  0  0  0  0  0  0  0
    4.9206   -0.4960    0.0000 C   0  0  0  0  0  0  0  0  0  0  0  0
    4.7935    0.9986    0.0000 C   0  0  0  0  0  0  0  0  0  0  0  0
    3.5096    1.7742    0.0000 N   0  0  0  0  0  0  0  0  0  0  0  0
    3.8506    3.2350    0.0000 N   0  0  0  0  0  0  0  0  0  0  0  0
    5.3452    3.3621    0.0000 N   0  0  0  0  0  2  0  0  0  0  0  0
    5.9280    1.9799    0.0000 N   0  0  0  0  0  0  0  0  0  0  0  0
    2.2048    0.7784    0.0000 C   0  0  0  0  0  0  0  0  0  0  0  0
    0.8469    1.4156    0.0000 C   0  0  0  0  0  0  0  0  0  0  0  0
  1  2  1  0
  2  3  1  0
  3  4  1  0
  4  5  1  0
  5  6  2  0
  6  7  1  0
  7  8  1  0
  8  9  1  0
  9 10  1  0
 10 11  1  0
  7 12  1  0
 12 13  2  0
 12 14  1  0
 14 15  1  0
 15 16  1  0
 16 17  2  0
 17 18  1  0
 18 19  2  0
 19 20  1  0
 20 21  2  0
 21 22  1  0
 22 23  2  0
 23 24  1  0
 24 25  2  0
 25 26  1  0
 26 27  1  0
 27 28  2  0
 28 29  1  0
 29 30  1  0
 19 31  1  0
 31 32  2  0
 14  5  1  0
 32 16  1  0
 11  7  1  0
 25 20  1  0
 30 26  2  0
M  CHG  1  29  -1
M  END
> <Identifier>
IRBESARTAN

> <hERG>
0

$$$$

     RDKit          2D

 18 21  0  0  0  0  0  0  0  0999 V2000
   -3.6026   -2.3542    0.0000 O   0  0  0  0  0  0  0  0  0  0  0  0
   -3.1270   -0.9316    0.0000 C   0  0  0  0  0  0  0  0  0  0  0  0
   -4.1212    0.1916    0.0000 C   0  0  0  0  0  0  0  0  0  0  0  0
   -3.6456    1.6142    0.0000 C   0  0  0  0  0  0  0  0  0  0  0  0
   -2.1757    1.9136    0.0000 C   0  0  0  0  0  0  0  0  0  0  0  0
   -1.1815    0.7904    0.0000 C   0  0  0  0  0  0  0  0  0  0  0  0
    0.2883    1.0898    0.0000 C   0  0  0  0  0  0  0  0  0  0  0  0
    0.7639    2.5124    0.0000 C   0  0  0  0  0  0  0  0  0  0  0  0
    2.2337    2.8118    0.0000 C   0  0  0  0  0  0  0  0  0  0  0  0
    3.2279    1.6886    0.0000 C   0  0  0  0  0  0  0  0  0  0  0  0
    2.7523    0.2660    0.0000 N   0  0  0  0  0  0  0  0  0  0  0  0
    3.7465   -0.8571    0.0000 C   0  0  0  0  0  0  0  0  0  0  0  0
    3.2709   -2.2797    0.0000 C   0  0  0  0  0  0  0  0  0  0  0  0
    1.8011   -2.5792    0.0000 C   0  0  0  0  0  0  0  0  0  0  0  0
    0.8069   -1.4560    0.0000 C   0  0  0  0  0  0  0  0  0  0  0  0
   -0.6630   -1.7554    0.0000 C   0  0  0  0  0  0  0  0  0  0  0  0
   -1.6572   -0.6322    0.0000 N   0  0  0  0  0  0  0  0  0  0  0  0
    1.2825   -0.0334    0.0000 C   0  0  0  0  0  0  0  0  0  0  0  0
  1  2  2  0
  2  3  1  0
  3  4  2  0
  4  5  1  0
  6  5  1  6
  6  7  1  0
  7  8  1  1
  8  9  1  0
  9 10  1  0
 10 11  1  0
 11 12  1  0
 12 13  1  0
 13 14  1  0
 15 14  1  6
 15 16  1  0
 16 17  1  0
 15 18  1  0
 17  2  1  0
 17  6  1  0
 18  7  1  0
 18 11  1  6
M  END
> <Identifier>
SOPHOCARPINE

> <hERG>
0

$$$$

     RDKit          2D

 22 26  0  0  0  0  0  0  0  0999 V2000
   -0.7032   -2.4774    0.0000 O   0  0  0  0  0  0  0  0  0  0  0  0
    0.0559   -1.1837    0.0000 C   0  0  0  0  0  0  0  0  0  0  0  0
    1.5559   -1.1942    0.0000 C   0  0  0  0  0  0  0  0  0  0  0  0
    2.2968   -2.4984    0.0000 C   0  0  0  0  0  0  0  0  0  0  0  0
    3.7967   -2.5089    0.0000 C   0  0  0  0  0  0  0  0  0  0  0  0
    4.5558   -1.2152    0.0000 C   0  0  0  0  0  0  0  0  0  0  0  0
    3.8149    0.0891    0.0000 C   0  0  0  0  0  0  0  0  0  0  0  0
    2.3150    0.0996    0.0000 C   0  0  0  0  0  0  0  0  0  0  0  0
    1.5741    1.4038    0.0000 C   0  0  0  0  0  0  0  0  0  0  0  0
    2.3332    2.6976    0.0000 C   0  0  0  0  0  0  0  0  0  0  0  0
    3.8331    2.6871    0.0000 C   0  0  0  0  0  0  0  0  0  0  0  0
    4.5740    1.3828    0.0000 C   0  0  0  0  0  0  0  0  0  0  0  0
    0.0741    1.4144    0.0000 C   0  0  0  0  0  0  0  0  0  0  0  0
   -0.6850    0.1206    0.0000 N   0  0  0  0  0  0  0  0  0  0  0  0
   -3.3061   -0.4231    0.0000 C   0  0  0  0  0  0  0  0  0  0  0  0
   -3.9760    0.7562    0.0000 C   0  0  0  0  0  0  0  0  0  0  0  0
   -4.4258    1.4459    0.0000 N   0  0  0  0  0  0  0  0  0  0  0  0
   -5.1849    0.1521    0.0000 C   0  0  0  0  0  0  0  0  0  0  0  0
   -4.4440   -1.1521    0.0000 C   0  0  0  0  0  0  0  0  0  0  0  0
   -2.9440   -1.1626    0.0000 C   0  0  0  0  0  0  0  0  0  0  0  0
   -2.1849    0.1311    0.0000 C   0  0  0  0  0  0  0  0  0  0  0  0
   -2.9258    1.4354    0.0000 C   0  0  0  0  0  0  0  0  0  0  0  0
  1  2  2  0
  2  3  1  0
  3  4  2  0
  4  5  1  0
  5  6  2  0
  6  7  1  0
  7  8  2  0
  8  9  1  0
  9 10  1  6
 10 11  1  0
 11 12  1  0
  9 13  1  0
 13 14  1  0
 15 14  1  1
 15 16  1  0
 16 17  1  0
 17 18  1  0
 18 19  1  0
 19 20  1  0
 20 21  1  0
 21 22  1  0
 14  2  1  0
 20 15  1  0
  8  3  1  0
 22 17  1  0
 12  7  1  0
M  END
> <Identifier>
PALONOSETRON

> <hERG>
0

$$$$

     RDKit          2D

 23 26  0  0  0  0  0  0  0  0999 V2000
   -6.9170   -1.2837    0.0000 F   0  0  0  0  0  0  0  0  0  0  0  0
   -5.4413   -1.0144    0.0000 C   0  0  0  0  0  0  0  0  0  0  0  0
   -4.9367    0.3982    0.0000 C   0  0  0  0  0  0  0  0  0  0  0  0
   -3.4611    0.6675    0.0000 C   0  0  0  0  0  0  0  0  0  0  0  0
   -2.4901   -0.4758    0.0000 C   0  0  0  0  0  0  0  0  0  0  0  0
   -1.0144   -0.2065    0.0000 N   0  0  0  0  0  0  0  0  0  0  0  0
    0.0708   -1.2421    0.0000 C   0  0  0  0  0  0  0  0  0  0  0  0
    1.3910   -0.5299    0.0000 C   0  0  0  0  0  0  0  0  0  0  0  0
    2.7431   -1.1794    0.0000 C   0  0  0  0  0  0  0  0  0  0  0  0
    2.8566   -2.6751    0.0000 C   0  0  0  0  0  0  0  0  0  0  0  0
    4.2087   -3.3246    0.0000 C   0  0  0  0  0  0  0  0  0  0  0  0
    5.4472   -2.4784    0.0000 N   0  0  0  0  0  4  0  0  0  0  0  0
    5.3337   -0.9827    0.0000 C   0  0  0  0  0  0  0  0  0  0  0  0
    3.9816   -0.3332    0.0000 C   0  0  0  0  0  0  0  0  0  0  0  0
    1.1217    0.9457    0.0000 C   0  0  0  0  0  0  0  0  0  0  0  0
    2.0381    2.1332    0.0000 C   0  0  0  0  0  0  0  0  0  0  0  0
    1.4679    3.5206    0.0000 C   0  0  0  0  0  0  0  0  0  0  0  0
    2.3843    4.7081    0.0000 Cl  0  0  0  0  0  0  0  0  0  0  0  0
   -0.0188    3.7205    0.0000 C   0  0  0  0  0  0  0  0  0  0  0  0
   -0.9352    2.5330    0.0000 C   0  0  0  0  0  0  0  0  0  0  0  0
   -0.3650    1.1456    0.0000 C   0  0  0  0  0  0  0  0  0  0  0  0
   -2.9947   -1.8884    0.0000 C   0  0  0  0  0  0  0  0  0  0  0  0
   -4.4703   -2.1577    0.0000 C   0  0  0  0  0  0  0  0  0  0  0  0
  1  2  1  0
  2  3  2  0
  3  4  1  0
  4  5  2  0
  5  6  1  0
  6  7  1  0
  7  8  2  0
  8  9  1  0
  9 10  1  0
 10 11  1  0
 11 12  1  0
 12 13  1  0
 13 14  1  0
  8 15  1  0
 15 16  2  0
 16 17  1  0
 17 18  1  0
 17 19  2  0
 19 20  1  0
 20 21  2  0
  5 22  1  0
 22 23  2  0
 23  2  1  0
 21  6  1  0
 14  9  1  0
 21 15  1  0
M  CHG  1  12   1
M  END
> <Identifier>
SERTINDOLE14

> <hERG>
0

$$$$

     RDKit          2D

 29 33  0  0  0  0  0  0  0  0999 V2000
   -6.2192   -3.7906    0.0000 C   0  0  0  0  0  0  0  0  0  0  0  0
   -5.0981   -2.7941    0.0000 O   0  0  0  0  0  0  0  0  0  0  0  0
   -5.4005   -1.3249    0.0000 N   0  0  0  0  0  0  0  0  0  0  0  0
   -4.2794   -0.3284    0.0000 C   0  0  0  0  0  0  0  0  0  0  0  0
   -2.8142   -0.6496    0.0000 C   0  0  0  0  0  0  0  0  0  0  0  0
   -2.0559    0.6445    0.0000 N   0  0  0  0  0  0  0  0  0  0  0  0
   -0.5631    0.7918    0.0000 C   0  0  0  0  0  0  0  0  0  0  0  0
    0.3107   -0.4274    0.0000 N   0  0  0  0  0  0  0  0  0  0  0  0
    1.8035   -0.2802    0.0000 C   0  0  0  0  0  0  0  0  0  0  0  0
    2.4224    1.0862    0.0000 C   0  0  0  0  0  0  0  0  0  0  0  0
    1.5485    2.3054    0.0000 C   0  0  0  0  0  0  0  0  0  0  0  0
    0.0558    2.1581    0.0000 C   0  0  0  0  0  0  0  0  0  0  0  0
   -0.8181    3.3773    0.0000 F   0  0  0  0  0  0  0  0  0  0  0  0
    3.9151    1.2334    0.0000 C   0  0  0  0  0  0  0  0  0  0  0  0
    4.5340    2.5998    0.0000 O   0  0  0  0  0  0  0  0  0  0  0  0
    4.7890    0.0142    0.0000 C   0  0  0  0  0  0  0  0  0  0  0  0
    6.2818    0.1615    0.0000 C   0  0  0  0  0  0  0  0  0  0  0  0
    6.9007    1.5278    0.0000 O   0  0  0  0  0  0  0  0  0  0  0  0
    7.1556   -1.0577    0.0000 O   0  0  0  0  0  0  0  0  0  0  0  0
    4.1701   -1.3521    0.0000 C   0  0  0  0  0  0  0  0  0  0  0  0
    2.6774   -1.4993    0.0000 N   0  0  0  0  0  0  0  0  0  0  0  0
    2.0585   -2.8657    0.0000 C   0  0  0  0  0  0  0  0  0  0  0  0
    2.2057   -4.3585    0.0000 C   0  0  0  0  0  0  0  0  0  0  0  0
    0.8393   -3.7396    0.0000 C   0  0  0  0  0  0  0  0  0  0  0  0
   -3.0524    1.7657    0.0000 C   0  0  0  0  0  0  0  0  0  0  0  0
   -4.4266    1.1644    0.0000 C   0  0  0  0  0  0  0  0  0  0  0  0
   -4.8055    2.6157    0.0000 C   0  0  0  0  0  0  0  0  0  0  0  0
   -6.2569    2.2368    0.0000 N   0  0  0  0  0  0  0  0  0  0  0  0
   -5.8780    0.7855    0.0000 C   0  0  0  0  0  0  0  0  0  0  0  0
  1  2  1  0
  2  3  1  0
  3  4  2  0
  4  5  1  0
  5  6  1  0
  6  7  1  0
  7  8  2  0
  8  9  1  0
  9 10  2  0
 10 11  1  0
 11 12  2  0
 12 13  1  0
 10 14  1  0
 14 15  2  0
 14 16  1  0
 16 17  1  6
 17 18  2  0
 17 19  1  0
 16 20  1  0
 20 21  1  0
 21 22  1  0
 22 23  1  0
 23 24  1  0
  6 25  1  0
 25 26  1  0
 26 27  1  0
 27 28  1  0
 28 29  1  0
 26  4  1  0
 12  7  1  0
 24 22  1  0
 29 26  1  0
 21  9  1  0
M  END
> <Identifier>
DW-224A

> <hERG>
0

$$$$

     RDKit          2D

 19 19  0  0  0  0  0  0  0  0999 V2000
    6.2958   -2.3335    0.0000 C   0  0  0  0  0  0  0  0  0  0  0  0
    4.8298   -2.0157    0.0000 C   0  0  0  0  0  0  0  0  0  0  0  0
    4.3720   -0.5873    0.0000 C   0  0  0  0  0  0  0  0  0  0  0  0
    2.9061   -0.2695    0.0000 N   0  0  0  0  0  0  0  0  0  0  0  0
    2.4483    1.1589    0.0000 C   0  0  0  0  0  0  0  0  0  0  0  0
    3.4565    2.2696    0.0000 C   0  0  0  0  0  0  0  0  0  0  0  0
    0.9823    1.4767    0.0000 C   0  0  0  0  0  0  0  0  0  0  0  0
    0.5246    2.9051    0.0000 O   0  0  0  0  0  0  0  0  0  0  0  0
   -0.0258    0.3660    0.0000 N   0  0  0  0  0  0  0  0  0  0  0  0
   -1.4918    0.6838    0.0000 C   0  0  0  0  0  0  0  0  0  0  0  0
   -2.0964    2.0565    0.0000 C   0  0  0  0  0  0  0  0  0  0  0  0
   -1.3412    3.3525    0.0000 C   0  0  0  0  0  0  0  0  0  0  0  0
   -3.5888    1.9057    0.0000 C   0  0  0  0  0  0  0  0  0  0  0  0
   -3.9065    0.4398    0.0000 S   0  0  0  0  0  0  0  0  0  0  0  0
   -2.6105   -0.3154    0.0000 C   0  0  0  0  0  0  0  0  0  0  0  0
   -2.4597   -1.8078    0.0000 C   0  0  0  0  0  0  0  0  0  0  0  0
   -1.0919   -2.4235    0.0000 O   0  0  0  0  0  0  0  0  0  0  0  0
   -3.6768   -2.6846    0.0000 O   0  0  0  0  0  0  0  0  0  0  0  0
   -3.5260   -4.1770    0.0000 C   0  0  0  0  0  0  0  0  0  0  0  0
  1  2  1  0
  2  3  1  0
  3  4  1  0
  4  5  1  0
  5  6  1  6
  5  7  1  0
  7  8  2  0
  7  9  1  0
  9 10  1  0
 10 11  1  0
 11 12  1  0
 11 13  2  0
 13 14  1  0
 14 15  1  0
 15 16  1  0
 16 17  2  0
 16 18  1  0
 18 19  1  0
 15 10  2  0
M  END
> <Identifier>
ARTICAINE

> <hERG>
0

$$$$

     RDKit          2D

 16 17  0  0  0  0  0  0  0  0999 V2000
    5.1160   -0.6635    0.0000 N   0  0  0  0  0  0  0  0  0  0  0  0
    3.6352   -0.4239    0.0000 C   0  0  0  0  0  0  0  0  0  0  0  0
    2.6873   -1.5864    0.0000 N   0  0  0  0  0  0  0  0  0  0  0  0
    1.2066   -1.3467    0.0000 N   0  0  0  0  0  0  0  0  0  0  0  0
    0.6738    0.0554    0.0000 C   0  0  0  0  0  0  0  0  0  0  0  0
   -0.8070    0.2951    0.0000 C   0  0  0  0  0  0  0  0  0  0  0  0
   -1.3398    1.6973    0.0000 C   0  0  0  0  0  0  0  0  0  0  0  0
   -2.8205    1.9369    0.0000 C   0  0  0  0  0  0  0  0  0  0  0  0
   -3.7684    0.7744    0.0000 C   0  0  0  0  0  0  0  0  0  0  0  0
   -3.2356   -0.6278    0.0000 C   0  0  0  0  0  0  0  0  0  0  0  0
   -4.1835   -1.7903    0.0000 Cl  0  0  0  0  0  0  0  0  0  0  0  0
   -1.7549   -0.8674    0.0000 C   0  0  0  0  0  0  0  0  0  0  0  0
   -1.2221   -2.2696    0.0000 Cl  0  0  0  0  0  0  0  0  0  0  0  0
    1.6217    1.2180    0.0000 C   0  0  0  0  0  0  0  0  0  0  0  0
    1.0889    2.6201    0.0000 N   0  0  0  0  0  0  0  0  0  0  0  0
    3.1024    0.9783    0.0000 N   0  0  0  0  0  0  0  0  0  0  0  0
  1  2  1  0
  2  3  2  0
  3  4  1  0
  4  5  2  0
  5  6  1  0
  6  7  2  0
  7  8  1  0
  8  9  2  0
  9 10  1  0
 10 11  1  0
 10 12  2  0
 12 13  1  0
  5 14  1  0
 14 15  1  0
 14 16  2  0
 16  2  1  0
 12  6  1  0
M  END
> <Identifier>
LAMOTRIGINE

> <hERG>
0

$$$$

     RDKit          2D

 19 20  0  0  0  0  0  0  0  0999 V2000
   -2.8177    3.2996    0.0000 C   0  0  0  0  0  0  0  0  0  0  0  0
   -2.2053    1.9303    0.0000 N   0  0  0  0  0  0  0  0  0  0  0  0
   -3.0850    0.7153    0.0000 C   0  0  0  0  0  0  0  0  0  0  0  0
   -0.7133    1.7760    0.0000 C   0  0  0  0  0  0  0  0  0  0  0  0
   -0.1009    0.4067    0.0000 C   0  0  0  0  0  0  0  0  0  0  0  0
    1.3911    0.2523    0.0000 C   0  0  0  0  0  0  0  0  0  0  0  0
    2.0035   -1.1170    0.0000 C   0  0  0  0  0  0  0  0  0  0  0  0
    3.4955   -1.2713    0.0000 C   0  0  0  0  0  0  0  0  0  0  0  0
    4.3752   -0.0563    0.0000 C   0  0  0  0  0  0  0  0  0  0  0  0
    5.8672   -0.2107    0.0000 O   0  0  0  0  0  0  0  0  0  0  0  0
    3.7628    1.3130    0.0000 C   0  0  0  0  0  0  0  0  0  0  0  0
    2.2708    1.4673    0.0000 C   0  0  0  0  0  0  0  0  0  0  0  0
   -0.9806   -0.8083    0.0000 C   0  0  0  0  0  0  0  0  0  0  0  0
    0.3687   -1.4636    0.0000 O   0  0  0  0  0  0  0  0  0  0  0  0
   -2.0244    0.2690    0.0000 C   0  0  0  0  0  0  0  0  0  0  0  0
   -3.4792   -0.0963    0.0000 C   0  0  0  0  0  0  0  0  0  0  0  0
   -3.8903   -1.5389    0.0000 C   0  0  0  0  0  0  0  0  0  0  0  0
   -2.8465   -2.6162    0.0000 C   0  0  0  0  0  0  0  0  0  0  0  0
   -1.3917   -2.2509    0.0000 C   0  0  0  0  0  0  0  0  0  0  0  0
  1  2  1  0
  2  3  1  0
  2  4  1  0
  4  5  1  0
  5  6  1  0
  6  7  2  0
  7  8  1  0
  8  9  2  0
  9 10  1  0
  9 11  1  0
 11 12  2  0
  5 13  1  0
 13 14  1  0
 13 15  1  0
 15 16  1  0
 16 17  1  0
 17 18  1  0
 18 19  1  0
 12  6  1  0
 19 13  1  0
M  END
> <Identifier>
DESVENLAFAXINE

> <hERG>
0

$$$$

     RDKit          2D

 21 22  0  0  0  0  0  0  0  0999 V2000
    4.0350   -3.2934    0.0000 C   0  0  0  0  0  0  0  0  0  0  0  0
    4.1157   -1.7956    0.0000 O   0  0  0  0  0  0  0  0  0  0  0  0
    2.8589   -0.9767    0.0000 C   0  0  0  0  0  0  0  0  0  0  0  0
    1.5214   -1.6557    0.0000 C   0  0  0  0  0  0  0  0  0  0  0  0
    0.2646   -0.8369    0.0000 C   0  0  0  0  0  0  0  0  0  0  0  0
   -1.0729   -1.5159    0.0000 C   0  0  0  0  0  0  0  0  0  0  0  0
   -2.3297   -0.6970    0.0000 C   0  0  0  0  0  0  0  0  0  0  0  0
   -2.2489    0.8008    0.0000 C   0  0  0  0  0  0  0  0  0  0  0  0
   -3.5057    1.6196    0.0000 N   0  0  0  0  0  0  0  0  0  0  0  0
   -4.8432    0.9406    0.0000 C   0  0  0  0  0  0  0  0  0  0  0  0
   -6.1000    1.7595    0.0000 N   0  0  0  0  0  0  0  0  0  0  0  0
   -4.9240   -0.5572    0.0000 N   0  0  0  0  0  0  0  0  0  0  0  0
   -3.6672   -1.3760    0.0000 C   0  0  0  0  0  0  0  0  0  0  0  0
   -3.7480   -2.8738    0.0000 N   0  0  0  0  0  0  0  0  0  0  0  0
    0.3454    0.6609    0.0000 C   0  0  0  0  0  0  0  0  0  0  0  0
    1.6829    1.3399    0.0000 C   0  0  0  0  0  0  0  0  0  0  0  0
    1.7636    2.8377    0.0000 O   0  0  0  0  0  0  0  0  0  0  0  0
    3.1012    3.5167    0.0000 C   0  0  0  0  0  0  0  0  0  0  0  0
    2.9397    0.5211    0.0000 C   0  0  0  0  0  0  0  0  0  0  0  0
    4.2772    1.2001    0.0000 O   0  0  0  0  0  0  0  0  0  0  0  0
    5.5340    0.3812    0.0000 C   0  0  0  0  0  0  0  0  0  0  0  0
  1  2  1  0
  2  3  1  0
  3  4  2  0
  4  5  1  0
  5  6  1  0
  6  7  1  0
  7  8  2  0
  8  9  1  0
  9 10  2  0
 10 11  1  0
 10 12  1  0
 12 13  2  0
 13 14  1  0
  5 15  2  0
 15 16  1  0
 16 17  1  0
 17 18  1  0
 16 19  2  0
 19 20  1  0
 20 21  1  0
 19  3  1  0
 13  7  1  0
M  END
> <Identifier>
TRIMETHOPRIM

> <hERG>
0

$$$$

     RDKit          2D

 22 23  0  0  0  0  0  0  0  0999 V2000
    1.9423   -5.0984    0.0000 N   0  0  0  0  0  0  0  0  0  0  0  0
    0.5674   -4.4988    0.0000 C   0  0  0  0  0  0  0  0  0  0  0  0
    0.3991   -3.0083    0.0000 C   0  0  0  0  0  0  0  0  0  0  0  0
    1.6058   -2.1173    0.0000 O   0  0  0  0  0  0  0  0  0  0  0  0
   -0.9759   -2.4088    0.0000 C   0  0  0  0  0  0  0  0  0  0  0  0
   -1.1442   -0.9183    0.0000 O   0  0  0  0  0  0  0  0  0  0  0  0
   -2.5192   -0.3187    0.0000 C   0  0  0  0  0  0  0  0  0  0  0  0
   -3.7259   -1.2097    0.0000 C   0  0  0  0  0  0  0  0  0  0  0  0
   -5.1008   -0.6102    0.0000 C   0  0  0  0  0  0  0  0  0  0  0  0
   -5.2691    0.8803    0.0000 C   0  0  0  0  0  0  0  0  0  0  0  0
   -4.0624    1.7713    0.0000 C   0  0  0  0  0  0  0  0  0  0  0  0
   -2.6875    1.1718    0.0000 C   0  0  0  0  0  0  0  0  0  0  0  0
   -1.4808    2.0628    0.0000 C   0  0  0  0  0  0  0  0  0  0  0  0
   -1.6491    3.5533    0.0000 O   0  0  0  0  0  0  0  0  0  0  0  0
   -0.1058    1.4633    0.0000 C   0  0  0  0  0  0  0  0  0  0  0  0
    1.1009    2.3543    0.0000 C   0  0  0  0  0  0  0  0  0  0  0  0
    2.4759    1.7548    0.0000 C   0  0  0  0  0  0  0  0  0  0  0  0
    2.6442    0.2642    0.0000 C   0  0  0  0  0  0  0  0  0  0  0  0
    4.0192   -0.3353    0.0000 C   0  0  0  0  0  0  0  0  0  0  0  0
    5.2258    0.5557    0.0000 C   0  0  0  0  0  0  0  0  0  0  0  0
    5.0576    2.0462    0.0000 C   0  0  0  0  0  0  0  0  0  0  0  0
    3.6826    2.6458    0.0000 C   0  0  0  0  0  0  0  0  0  0  0  0
  1  2  1  0
  2  3  1  0
  3  4  1  6
  3  5  1  0
  5  6  1  0
  6  7  1  0
  7  8  2  0
  8  9  1  0
  9 10  2  0
 10 11  1  0
 11 12  2  0
 12 13  1  0
 13 14  2  0
 13 15  1  0
 15 16  1  0
 16 17  1  0
 17 18  2  0
 18 19  1  0
 19 20  2  0
 20 21  1  0
 21 22  2  0
 12  7  1  0
 22 17  1  0
M  END
> <Identifier>
N-DEPROPYLPROPAFENONE

> <hERG>
0

$$$$

     RDKit          2D

 19 21  0  0  0  0  0  0  0  0999 V2000
   -4.6991   -0.0217    0.0000 O   0  0  0  0  0  0  0  0  0  0  0  0
   -3.2483   -0.4030    0.0000 C   0  0  0  0  0  0  0  0  0  0  0  0
   -2.7041   -1.8008    0.0000 N   0  0  0  0  0  0  0  0  0  0  0  0
   -1.2065   -1.7151    0.0000 C   0  0  0  0  0  0  0  0  0  0  0  0
   -0.2570   -2.8763    0.0000 O   0  0  0  0  0  0  0  0  0  0  0  0
   -0.8252   -0.2644    0.0000 C   0  0  0  0  0  0  0  0  0  0  0  0
   -0.1507    1.0754    0.0000 C   0  0  0  0  0  0  0  0  0  0  0  0
    1.3469    1.1611    0.0000 C   0  0  0  0  0  0  0  0  0  0  0  0
    2.0215    2.5008    0.0000 C   0  0  0  0  0  0  0  0  0  0  0  0
    1.1985    3.7549    0.0000 C   0  0  0  0  0  0  0  0  0  0  0  0
   -0.2990    3.6692    0.0000 C   0  0  0  0  0  0  0  0  0  0  0  0
   -0.9736    2.3295    0.0000 C   0  0  0  0  0  0  0  0  0  0  0  0
    0.5777   -0.7952    0.0000 C   0  0  0  0  0  0  0  0  0  0  0  0
    0.8194   -2.2756    0.0000 C   0  0  0  0  0  0  0  0  0  0  0  0
    2.2224   -2.8064    0.0000 C   0  0  0  0  0  0  0  0  0  0  0  0
    3.3836   -1.8569    0.0000 C   0  0  0  0  0  0  0  0  0  0  0  0
    3.1418   -0.3765    0.0000 C   0  0  0  0  0  0  0  0  0  0  0  0
    1.7389    0.1543    0.0000 C   0  0  0  0  0  0  0  0  0  0  0  0
   -2.0871    0.5466    0.0000 N   0  0  0  0  0  0  0  0  0  0  0  0
  1  2  2  0
  2  3  1  0
  3  4  1  0
  4  5  2  0
  4  6  1  0
  6  7  1  0
  7  8  2  0
  8  9  1  0
  9 10  2  0
 10 11  1  0
 11 12  2  0
  6 13  1  0
 13 14  2  0
 14 15  1  0
 15 16  2  0
 16 17  1  0
 17 18  2  0
  6 19  1  0
 19  2  1  0
 12  7  1  0
 18 13  1  0
M  END
> <Identifier>
PHENYTOIN

> <hERG>
0

$$$$

     RDKit          2D

 12 13  0  0  0  0  0  0  0  0999 V2000
   -1.5358    2.3077    0.0000 C   0  0  0  0  0  0  0  0  0  0  0  0
   -1.8869    0.8493    0.0000 N   0  0  0  0  0  4  0  0  0  0  0  0
   -3.2732    0.2763    0.0000 C   0  0  0  0  0  0  0  0  0  0  0  0
   -3.1565   -1.2192    0.0000 C   0  0  0  0  0  0  0  0  0  0  0  0
   -1.6982   -1.5704    0.0000 C   0  0  0  0  0  0  0  0  0  0  0  0
   -0.9136   -0.2919    0.0000 C   0  0  0  0  0  0  0  0  0  0  0  0
    0.5819   -0.1753    0.0000 C   0  0  0  0  0  0  0  0  0  0  0  0
    1.4306   -1.4121    0.0000 C   0  0  0  0  0  0  0  0  0  0  0  0
    2.9261   -1.2954    0.0000 C   0  0  0  0  0  0  0  0  0  0  0  0
    3.5728    0.0580    0.0000 C   0  0  0  0  0  0  0  0  0  0  0  0
    2.7241    1.2948    0.0000 N   0  0  0  0  0  0  0  0  0  0  0  0
    1.2286    1.1781    0.0000 C   0  0  0  0  0  0  0  0  0  0  0  0
  1  2  1  0
  2  3  1  0
  3  4  1  0
  4  5  1  0
  5  6  1  0
  6  7  1  1
  7  8  2  0
  8  9  1  0
  9 10  2  0
 10 11  1  0
 11 12  2  0
  6  2  1  0
 12  7  1  0
M  CHG  1   2   1
M  END
> <Identifier>
NICOTINE

> <hERG>
0

$$$$

     RDKit          2D

 17 17  0  0  0  0  0  0  0  0999 V2000
   -5.7991   -0.5402    0.0000 C   0  0  0  0  0  0  0  0  0  0  0  0
   -4.4874   -1.2679    0.0000 C   0  0  0  0  0  0  0  0  0  0  0  0
   -3.2014   -0.4959    0.0000 N   0  0  0  0  0  0  0  0  0  0  0  0
   -3.2270    1.0039    0.0000 C   0  0  0  0  0  0  0  0  0  0  0  0
   -4.5386    1.7316    0.0000 C   0  0  0  0  0  0  0  0  0  0  0  0
   -1.8897   -1.2236    0.0000 C   0  0  0  0  0  0  0  0  0  0  0  0
   -0.6037   -0.4515    0.0000 C   0  0  0  0  0  0  0  0  0  0  0  0
   -0.6293    1.0482    0.0000 O   0  0  0  0  0  0  0  0  0  0  0  0
    0.7079   -1.1793    0.0000 N   0  0  0  0  0  0  0  0  0  0  0  0
    1.9940   -0.4072    0.0000 C   0  0  0  0  0  0  0  0  0  0  0  0
    1.9684    1.0926    0.0000 C   0  0  0  0  0  0  0  0  0  0  0  0
    0.6568    1.8203    0.0000 C   0  0  0  0  0  0  0  0  0  0  0  0
    3.2545    1.8646    0.0000 C   0  0  0  0  0  0  0  0  0  0  0  0
    4.5661    1.1369    0.0000 C   0  0  0  0  0  0  0  0  0  0  0  0
    4.5917   -0.3629    0.0000 C   0  0  0  0  0  0  0  0  0  0  0  0
    3.3056   -1.1349    0.0000 C   0  0  0  0  0  0  0  0  0  0  0  0
    3.3312   -2.6347    0.0000 C   0  0  0  0  0  0  0  0  0  0  0  0
  1  2  1  0
  2  3  1  0
  3  4  1  0
  4  5  1  0
  3  6  1  0
  6  7  1  0
  7  8  2  0
  7  9  1  0
  9 10  1  0
 10 11  2  0
 11 12  1  0
 11 13  1  0
 13 14  2  0
 14 15  1  0
 15 16  2  0
 16 17  1  0
 16 10  1  0
M  END
> <Identifier>
LIGNOCAINE

> <hERG>
0

$$$$

     RDKit          2D

 51 53  0  0  0  0  0  0  0  0999 V2000
   -5.5736   -4.0840    0.0000 C   0  0  0  0  0  0  0  0  0  0  0  0
   -4.2511   -4.7919    0.0000 C   0  0  0  0  0  0  0  0  0  0  0  0
   -2.9768   -4.0005    0.0000 C   0  0  0  0  0  0  0  0  0  0  0  0
   -3.4648   -2.5821    0.0000 O   0  0  0  0  0  0  0  0  0  0  0  0
   -3.2891   -1.0924    0.0000 C   0  0  0  0  0  0  0  0  0  0  0  0
   -4.7023   -0.5896    0.0000 O   0  0  0  0  0  0  0  0  0  0  0  0
   -2.4844    0.1735    0.0000 C   0  0  0  0  0  0  0  0  0  0  0  0
   -3.6379    0.8748    0.0000 C   0  0  0  0  0  0  0  0  0  0  0  0
   -1.2101    0.9649    0.0000 C   0  0  0  0  0  0  0  0  0  0  0  0
   -1.6981    2.3833    0.0000 O   0  0  0  0  0  0  0  0  0  0  0  0
   -3.1705    2.6699    0.0000 C   0  0  0  0  0  0  0  0  0  0  0  0
   -3.6585    4.0883    0.0000 C   0  0  0  0  0  0  0  0  0  0  0  0
   -5.1308    4.3748    0.0000 C   0  0  0  0  0  0  0  0  0  0  0  0
   -6.4164    5.1477    0.0000 C   0  0  0  0  0  0  0  0  0  0  0  0
   -4.5929    5.7751    0.0000 O   0  0  0  0  0  0  0  0  0  0  0  0
   -5.5366    6.9410    0.0000 C   0  0  0  0  0  0  0  0  0  0  0  0
   -6.1152    3.2430    0.0000 C   0  0  0  0  0  0  0  0  0  0  0  0
   -7.5876    3.5296    0.0000 O   0  0  0  0  0  0  0  0  0  0  0  0
   -5.6272    1.8246    0.0000 C   0  0  0  0  0  0  0  0  0  0  0  0
   -6.6116    0.6928    0.0000 C   0  0  0  0  0  0  0  0  0  0  0  0
   -4.1549    1.5380    0.0000 O   0  0  0  0  0  0  0  0  0  0  0  0
    0.2813    1.1250    0.0000 C   0  0  0  0  0  0  0  0  0  0  0  0
    0.4571    2.6147    0.0000 C   0  0  0  0  0  0  0  0  0  0  0  0
    1.6945    0.6222    0.0000 C   0  0  0  0  0  0  0  0  0  0  0  0
    2.4992    1.8880    0.0000 O   0  0  0  0  0  0  0  0  0  0  0  0
    3.9978    1.8241    0.0000 C   0  0  0  0  0  0  0  0  0  0  0  0
    4.6918    0.4943    0.0000 O   0  0  0  0  0  0  0  0  0  0  0  0
    6.1904    0.4303    0.0000 C   0  0  0  0  0  0  0  0  0  0  0  0
    6.8844   -0.8995    0.0000 C   0  0  0  0  0  0  0  0  0  0  0  0
    6.9951    1.6962    0.0000 C   0  0  0  0  0  0  0  0  0  0  0  0
    6.3012    3.0261    0.0000 C   0  0  0  0  0  0  0  0  0  0  0  0
    7.1059    4.2919    0.0000 N   0  0  0  0  0  4  0  0  0  0  0  0
    8.6045    4.2280    0.0000 C   0  0  0  0  0  0  0  0  0  0  0  0
    6.4119    5.6218    0.0000 C   0  0  0  0  0  0  0  0  0  0  0  0
    4.8025    3.0900    0.0000 C   0  0  0  0  0  0  0  0  0  0  0  0
    4.1086    4.4198    0.0000 O   0  0  0  0  0  0  0  0  0  0  0  0
    2.7496   -0.4440    0.0000 C   0  0  0  0  0  0  0  0  0  0  0  0
    3.3566    0.9276    0.0000 C   0  0  0  0  0  0  0  0  0  0  0  0
    4.2482   -0.5080    0.0000 O   0  0  0  0  0  0  0  0  0  0  0  0
    3.2376   -1.8624    0.0000 C   0  0  0  0  0  0  0  0  0  0  0  0
    3.0618   -3.3521    0.0000 C   0  0  0  0  0  0  0  0  0  0  0  0
    4.4750   -3.8549    0.0000 C   0  0  0  0  0  0  0  0  0  0  0  0
    2.2571   -4.6180    0.0000 C   0  0  0  0  0  0  0  0  0  0  0  0
    3.3122   -5.6842    0.0000 N   0  0  0  0  0  4  0  0  0  0  0  0
    0.9829   -5.4094    0.0000 C   0  0  0  0  0  0  0  0  0  0  0  0
    1.4709   -6.8278    0.0000 C   0  0  0  0  0  0  0  0  0  0  0  0
   -0.5085   -5.5695    0.0000 C   0  0  0  0  0  0  0  0  0  0  0  0
   -0.6843   -7.0592    0.0000 O   0  0  0  0  0  0  0  0  0  0  0  0
   -1.9217   -5.0667    0.0000 C   0  0  0  0  0  0  0  0  0  0  0  0
   -1.8735   -6.5659    0.0000 C   0  0  0  0  0  0  0  0  0  0  0  0
   -3.2997   -5.6593    0.0000 O   0  0  0  0  0  0  0  0  0  0  0  0
  1  2  1  0
  3  2  1  1
  3  4  1  0
  4  5  1  0
  5  6  2  0
  5  7  1  0
  7  8  1  1
  7  9  1  0
  9 10  1  1
 11 10  1  6
 11 12  1  0
 12 13  1  0
 13 14  1  1
 13 15  1  0
 15 16  1  0
 13 17  1  0
 17 18  1  6
 17 19  1  0
 19 20  1  1
 19 21  1  0
  9 22  1  0
 22 23  1  6
 22 24  1  0
 24 25  1  1
 26 25  1  1
 26 27  1  0
 27 28  1  0
 28 29  1  1
 28 30  1  0
 30 31  1  0
 31 32  1  1
 32 33  1  0
 32 34  1  0
 31 35  1  0
 35 36  1  1
 24 37  1  0
 37 38  1  6
 37 39  1  0
 37 40  1  0
 40 41  1  0
 41 42  1  1
 41 43  1  0
 43 44  1  6
 43 45  1  0
 45 46  1  6
 45 47  1  0
 47 48  1  1
 47 49  1  0
 49 50  1  1
 49 51  1  0
 49  3  1  0
 21 11  1  0
 35 26  1  0
M  CHG  2  32   1  44   1
M  END
> <Identifier>
ERYTHROMYCYLAMINE

> <hERG>
0

$$$$

     RDKit          2D

 22 24  0  0  0  0  0  0  0  0999 V2000
   -6.7653    1.9303    0.0000 C   0  0  0  0  0  0  0  0  0  0  0  0
   -6.1849    0.5472    0.0000 O   0  0  0  0  0  0  0  0  0  0  0  0
   -4.6968    0.3583    0.0000 C   0  0  0  0  0  0  0  0  0  0  0  0
   -3.7892    1.5525    0.0000 C   0  0  0  0  0  0  0  0  0  0  0  0
   -2.3011    1.3635    0.0000 C   0  0  0  0  0  0  0  0  0  0  0  0
   -1.7207   -0.0196    0.0000 C   0  0  0  0  0  0  0  0  0  0  0  0
   -0.2327   -0.2085    0.0000 C   0  0  0  0  0  0  0  0  0  0  0  0
    0.3477   -1.5917    0.0000 C   0  0  0  0  0  0  0  0  0  0  0  0
    1.8358   -1.7806    0.0000 C   0  0  0  0  0  0  0  0  0  0  0  0
    2.4162   -3.1638    0.0000 O   0  0  0  0  0  0  0  0  0  0  0  0
    2.7434   -0.5864    0.0000 C   0  0  0  0  0  0  0  0  0  0  0  0
    4.2315   -0.7753    0.0000 C   0  0  0  0  0  0  0  0  0  0  0  0
    4.8119   -2.1585    0.0000 O   0  0  0  0  0  0  0  0  0  0  0  0
    5.1391    0.4189    0.0000 C   0  0  0  0  0  0  0  0  0  0  0  0
    4.5587    1.8020    0.0000 C   0  0  0  0  0  0  0  0  0  0  0  0
    5.4664    2.9963    0.0000 O   0  0  0  0  0  0  0  0  0  0  0  0
    3.0707    1.9910    0.0000 C   0  0  0  0  0  0  0  0  0  0  0  0
    2.1630    0.7967    0.0000 C   0  0  0  0  0  0  0  0  0  0  0  0
    0.6750    0.9857    0.0000 O   0  0  0  0  0  0  0  0  0  0  0  0
   -2.6284   -1.2138    0.0000 C   0  0  0  0  0  0  0  0  0  0  0  0
   -4.1164   -1.0249    0.0000 C   0  0  0  0  0  0  0  0  0  0  0  0
   -5.0241   -2.2191    0.0000 O   0  0  0  0  0  0  0  0  0  0  0  0
  1  2  1  0
  2  3  1  0
  3  4  2  0
  4  5  1  0
  5  6  2  0
  7  6  1  1
  7  8  1  0
  8  9  1  0
  9 10  2  0
  9 11  1  0
 11 12  2  0
 12 13  1  0
 12 14  1  0
 14 15  2  0
 15 16  1  0
 15 17  1  0
 17 18  2  0
 18 19  1  0
  6 20  1  0
 20 21  2  0
 21 22  1  0
 21  3  1  0
 19  7  1  0
 18 11  1  0
M  END
> <Identifier>
HESPERITIN

> <hERG>
0

$$$$

     RDKit          2D

 25 27  0  0  0  0  0  0  0  0999 V2000
   -6.8832    1.8644    0.0000 C   0  0  0  0  0  0  0  0  0  0  0  0
   -6.0516    0.6160    0.0000 O   0  0  0  0  0  0  0  0  0  0  0  0
   -4.5547    0.7119    0.0000 C   0  0  0  0  0  0  0  0  0  0  0  0
   -3.8893    2.0563    0.0000 C   0  0  0  0  0  0  0  0  0  0  0  0
   -2.3924    2.1522    0.0000 C   0  0  0  0  0  0  0  0  0  0  0  0
   -1.5608    0.9038    0.0000 C   0  0  0  0  0  0  0  0  0  0  0  0
   -2.2262   -0.4405    0.0000 C   0  0  0  0  0  0  0  0  0  0  0  0
   -3.7231   -0.5365    0.0000 C   0  0  0  0  0  0  0  0  0  0  0  0
   -1.1532   -1.4888    0.0000 C   0  0  0  0  0  0  0  0  0  0  0  0
   -1.3706   -2.9729    0.0000 C   0  0  0  0  0  0  0  0  0  0  0  0
   -0.1940   -3.9033    0.0000 C   0  0  0  0  0  0  0  0  0  0  0  0
    1.2000   -3.3494    0.0000 O   0  0  0  0  0  0  0  0  0  0  0  0
   -0.4114   -5.3874    0.0000 O   0  0  0  0  0  1  0  0  0  0  0  0
    0.1752   -0.7923    0.0000 C   0  0  0  0  0  0  0  0  0  0  0  0
    1.5196   -1.4576    0.0000 C   0  0  0  0  0  0  0  0  0  0  0  0
   -0.0766    0.6864    0.0000 N   0  0  0  0  0  0  0  0  0  0  0  0
    0.9716    1.7594    0.0000 C   0  0  0  0  0  0  0  0  0  0  0  0
    0.5665    3.2037    0.0000 O   0  0  0  0  0  0  0  0  0  0  0  0
    2.4249    1.3881    0.0000 C   0  0  0  0  0  0  0  0  0  0  0  0
    2.8300   -0.0562    0.0000 C   0  0  0  0  0  0  0  0  0  0  0  0
    4.2833   -0.4275    0.0000 C   0  0  0  0  0  0  0  0  0  0  0  0
    5.3315    0.6454    0.0000 C   0  0  0  0  0  0  0  0  0  0  0  0
    6.7848    0.2741    0.0000 Cl  0  0  0  0  0  0  0  0  0  0  0  0
    4.9264    2.0897    0.0000 C   0  0  0  0  0  0  0  0  0  0  0  0
    3.4731    2.4610    0.0000 C   0  0  0  0  0  0  0  0  0  0  0  0
  1  2  1  0
  2  3  1  0
  3  4  2  0
  4  5  1  0
  5  6  2  0
  6  7  1  0
  7  8  2  0
  7  9  1  0
  9 10  1  0
 10 11  1  0
 11 12  2  0
 11 13  1  0
  9 14  2  0
 14 15  1  0
 14 16  1  0
 16 17  1  0
 17 18  2  0
 17 19  1  0
 19 20  2  0
 20 21  1  0
 21 22  2  0
 22 23  1  0
 22 24  1  0
 24 25  2  0
  8  3  1  0
 25 19  1  0
 16  6  1  0
M  CHG  1  13  -1
M  END
> <Identifier>
INDOMETHACIN

> <hERG>
0

$$$$

     RDKit          2D

 16 16  0  0  0  0  0  0  0  0999 V2000
   -2.8112    1.8394    0.0000 C   0  0  0  0  0  0  0  0  0  0  0  0
   -2.5433    0.3635    0.0000 C   0  0  0  0  0  0  0  0  0  0  0  0
   -2.2754   -1.1124    0.0000 C   0  0  0  0  0  0  0  0  0  0  0  0
   -1.0674    0.6314    0.0000 N   0  0  0  0  0  0  0  0  0  0  0  0
   -0.0975   -0.5128    0.0000 C   0  0  0  0  0  0  0  0  0  0  0  0
   -0.6034   -1.9249    0.0000 O   0  0  0  0  0  0  0  0  0  0  0  0
    1.3784   -0.2449    0.0000 C   0  0  0  0  0  0  0  0  0  0  0  0
    1.8843    1.1672    0.0000 C   0  0  0  0  0  0  0  0  0  0  0  0
    3.3602    1.4351    0.0000 C   0  0  0  0  0  0  0  0  0  0  0  0
    4.3302    0.2909    0.0000 C   0  0  0  0  0  0  0  0  0  0  0  0
    5.8060    0.5588    0.0000 O   0  0  0  0  0  0  0  0  0  0  0  0
    3.8242   -1.1212    0.0000 C   0  0  0  0  0  0  0  0  0  0  0  0
    2.3484   -1.3891    0.0000 C   0  0  0  0  0  0  0  0  0  0  0  0
   -4.0192    0.0956    0.0000 C   0  0  0  0  0  0  0  0  0  0  0  0
   -4.9892    1.2398    0.0000 O   0  0  0  0  0  0  0  0  0  0  0  0
   -4.5251   -1.3165    0.0000 O   0  0  0  0  0  0  0  0  0  0  0  0
  1  2  1  0
  2  3  1  0
  2  4  1  0
  4  5  1  0
  5  6  2  0
  5  7  1  0
  7  8  2  0
  8  9  1  0
  9 10  2  0
 10 11  1  0
 10 12  1  0
 12 13  2  0
  2 14  1  0
 14 15  2  0
 14 16  1  0
 13  7  1  0
M  END
> <Identifier>
M-43068

> <hERG>
0

$$$$

     RDKit          2D

 22 26  0  0  0  0  0  0  0  0999 V2000
   -5.3347   -1.4067    0.0000 C   0  0  0  0  0  0  0  0  0  0  0  0
   -3.8625   -1.6939    0.0000 O   0  0  0  0  0  0  0  0  0  0  0  0
   -2.8776   -0.5626    0.0000 C   0  0  0  0  0  0  0  0  0  0  0  0
   -3.3650    0.8561    0.0000 C   0  0  0  0  0  0  0  0  0  0  0  0
   -2.3801    1.9874    0.0000 C   0  0  0  0  0  0  0  0  0  0  0  0
   -0.9078    1.7002    0.0000 C   0  0  0  0  0  0  0  0  0  0  0  0
   -0.4205    0.2815    0.0000 C   0  0  0  0  0  0  0  0  0  0  0  0
   -1.4054   -0.8498    0.0000 C   0  0  0  0  0  0  0  0  0  0  0  0
   -0.6337   -2.1361    0.0000 O   0  0  0  0  0  0  0  0  0  0  0  0
    0.8281   -1.7997    0.0000 C   0  0  0  0  0  0  0  0  0  0  0  0
    2.0562   -2.6610    0.0000 C   0  0  0  0  0  0  0  0  0  0  0  0
    1.9244   -4.1552    0.0000 O   0  0  0  0  0  0  0  0  0  0  0  0
    3.4161   -2.0280    0.0000 C   0  0  0  0  0  0  0  0  0  0  0  0
    3.5479   -0.5338    0.0000 C   0  0  0  0  0  0  0  0  0  0  0  0
    2.3198    0.3274    0.0000 C   0  0  0  0  0  0  0  0  0  0  0  0
    2.4516    1.8216    0.0000 C   0  0  0  0  0  0  0  0  0  0  0  0
    0.3633    2.4966    0.0000 C   0  0  0  0  0  0  0  0  0  0  0  0
    1.1620    1.9856    0.0000 N   0  0  0  0  0  4  0  0  0  0  0  0
    1.3553    4.1770    0.0000 C   0  0  0  0  0  0  0  0  0  0  0  0
    0.4367    1.6480    0.0000 C   0  0  0  0  0  0  0  0  0  0  0  0
    0.3664    0.8511    0.0000 C   0  0  0  0  0  0  0  0  0  0  0  0
    0.9599   -0.3055    0.0000 C   0  0  0  0  0  0  0  0  0  0  0  0
  1  2  1  0
  2  3  1  0
  3  4  2  0
  4  5  1  0
  5  6  2  0
  6  7  1  0
  7  8  2  0
  8  9  1  0
 10  9  1  6
 10 11  1  0
 11 12  1  6
 11 13  1  0
 13 14  2  0
 15 14  1  6
 15 16  1  0
 16 17  1  6
 16 18  1  0
 18 19  1  0
 18 20  1  0
 20 21  1  0
 22 21  1  1
  8  3  1  0
 22 10  1  0
 17  6  1  0
 22  7  1  0
 22 15  1  0
M  CHG  1  18   1
M  END
> <Identifier>
CODEINE

> <hERG>
0

$$$$

     RDKit          2D

 48 51  0  0  0  0  0  0  0  0999 V2000
    5.8105   -0.2850    0.0000 C   0  0  0  0  0  0  0  0  0  0  0  0
    4.3795    0.1648    0.0000 O   0  0  0  0  0  0  0  0  0  0  0  0
    4.0536    1.6290    0.0000 C   0  0  0  0  0  0  0  0  0  0  0  0
    2.6226    2.0787    0.0000 C   0  0  0  0  0  0  0  0  0  0  0  0
    2.2966    3.5429    0.0000 C   0  0  0  0  0  0  0  0  0  0  0  0
    0.8656    3.9927    0.0000 O   0  0  0  0  0  0  0  0  0  0  0  0
   -0.2394    2.9783    0.0000 C   0  0  0  0  0  0  0  0  0  0  0  0
   -1.4742    3.8299    0.0000 C   0  0  0  0  0  0  0  0  0  0  0  0
   -0.9188    5.2232    0.0000 C   0  0  0  0  0  0  0  0  0  0  0  0
   -2.9562    4.0613    0.0000 C   0  0  0  0  0  0  0  0  0  0  0  0
   -3.0604    5.5577    0.0000 O   0  0  0  0  0  0  0  0  0  0  0  0
   -4.3919    3.6269    0.0000 O   0  0  0  0  0  0  0  0  0  0  0  0
   -5.4969    2.6125    0.0000 C   0  0  0  0  0  0  0  0  0  0  0  0
   -6.7318    3.4641    0.0000 C   0  0  0  0  0  0  0  0  0  0  0  0
   -6.0524    1.2191    0.0000 C   0  0  0  0  0  0  0  0  0  0  0  0
   -7.5344    1.4506    0.0000 C   0  0  0  0  0  0  0  0  0  0  0  0
   -5.9483   -0.2773    0.0000 C   0  0  0  0  0  0  0  0  0  0  0  0
   -7.3840   -0.7117    0.0000 O   0  0  0  0  0  0  0  0  0  0  0  0
   -5.2052   -1.5803    0.0000 C   0  0  0  0  0  0  0  0  0  0  0  0
   -6.3102   -2.5947    0.0000 C   0  0  0  0  0  0  0  0  0  0  0  0
   -3.9704   -2.4319    0.0000 C   0  0  0  0  0  0  0  0  0  0  0  0
   -4.5259   -3.8252    0.0000 O   0  0  0  0  0  0  0  0  0  0  0  0
   -2.4884   -2.6633    0.0000 C   0  0  0  0  0  0  0  0  0  0  0  0
   -1.6500   -3.9072    0.0000 C   0  0  0  0  0  0  0  0  0  0  0  0
   -3.1464   -4.0113    0.0000 O   0  0  0  0  0  0  0  0  0  0  0  0
   -1.0527   -2.2289    0.0000 C   0  0  0  0  0  0  0  0  0  0  0  0
    0.0523   -1.2145    0.0000 C   0  0  0  0  0  0  0  0  0  0  0  0
    1.0444   -2.3396    0.0000 C   0  0  0  0  0  0  0  0  0  0  0  0
    0.6078    0.1789    0.0000 C   0  0  0  0  0  0  0  0  0  0  0  0
    2.0898   -0.0526    0.0000 O   0  0  0  0  0  0  0  0  0  0  0  0
    2.6304   -1.4518    0.0000 C   0  0  0  0  0  0  0  0  0  0  0  0
    4.1124   -1.6833    0.0000 O   0  0  0  0  0  0  0  0  0  0  0  0
    4.6530   -3.0825    0.0000 C   0  0  0  0  0  0  0  0  0  0  0  0
    6.1350   -3.3140    0.0000 C   0  0  0  0  0  0  0  0  0  0  0  0
    3.7115   -4.2502    0.0000 C   0  0  0  0  0  0  0  0  0  0  0  0
    2.2294   -4.0188    0.0000 C   0  0  0  0  0  0  0  0  0  0  0  0
    1.2880   -5.1865    0.0000 N   0  0  0  0  0  4  0  0  0  0  0  0
    1.8285   -6.5857    0.0000 C   0  0  0  0  0  0  0  0  0  0  0  0
   -0.1941   -4.9550    0.0000 C   0  0  0  0  0  0  0  0  0  0  0  0
    1.6889   -2.6195    0.0000 C   0  0  0  0  0  0  0  0  0  0  0  0
    0.2069   -2.3881    0.0000 O   0  0  0  0  0  0  0  0  0  0  0  0
    0.5037    1.6753    0.0000 C   0  0  0  0  0  0  0  0  0  0  0  0
    2.0018    1.7494    0.0000 C   0  0  0  0  0  0  0  0  0  0  0  0
    3.4016    4.5573    0.0000 O   0  0  0  0  0  0  0  0  0  0  0  0
    4.8326    4.1075    0.0000 C   0  0  0  0  0  0  0  0  0  0  0  0
    5.9376    5.1219    0.0000 C   0  0  0  0  0  0  0  0  0  0  0  0
    5.1586    2.6433    0.0000 C   0  0  0  0  0  0  0  0  0  0  0  0
    6.5895    2.1936    0.0000 O   0  0  0  0  0  0  0  0  0  0  0  0
  1  2  1  0
  3  2  1  6
  3  4  1  0
  4  5  1  0
  5  6  1  6
  7  6  1  6
  7  8  1  0
  8  9  1  1
  8 10  1  0
 10 11  2  0
 10 12  1  0
 12 13  1  0
 13 14  1  1
 13 15  1  0
 15 16  1  1
 15 17  1  0
 17 18  1  6
 17 19  1  0
 19 20  1  6
 19 21  1  0
 21 22  2  0
 21 23  1  0
 23 24  1  1
 24 25  1  0
 23 26  1  0
 26 27  1  0
 27 28  1  6
 27 29  1  0
 29 30  1  6
 31 30  1  1
 31 32  1  0
 32 33  1  0
 33 34  1  6
 33 35  1  0
 35 36  1  0
 36 37  1  1
 37 38  1  0
 37 39  1  0
 36 40  1  0
 40 41  1  6
 29 42  1  0
 42 43  1  6
  5 44  1  0
 44 45  1  0
 45 46  1  6
 45 47  1  0
 47 48  1  1
 47  3  1  0
 42  7  1  0
 25 23  1  0
 40 31  1  0
M  CHG  1  37   1
M  END
> <Identifier>
OLEANDOMYCIN

> <hERG>
0

$$$$

     RDKit          2D

 32 36  0  0  0  0  0  0  0  0999 V2000
   -4.9841    1.5926    0.0000 C   0  0  0  0  0  0  0  0  0  0  0  0
   -6.2888    0.8525    0.0000 C   0  0  0  0  0  0  0  0  0  0  0  0
   -7.6545    1.4730    0.0000 O   0  0  0  0  0  0  0  0  0  0  0  0
   -8.6666    0.3660    0.0000 C   0  0  0  0  0  0  0  0  0  0  0  0
  -10.1572    0.5342    0.0000 O   0  0  0  0  0  0  0  0  0  0  0  0
   -7.9265   -0.9387    0.0000 O   0  0  0  0  0  0  0  0  0  0  0  0
   -6.4570   -0.6380    0.0000 C   0  0  0  0  0  0  0  0  0  0  0  0
   -5.3499   -1.6502    0.0000 C   0  0  0  0  0  0  0  0  0  0  0  0
   -3.9199   -1.1976    0.0000 N   0  0  0  0  0  0  0  0  0  0  0  0
   -2.8128   -2.2097    0.0000 C   0  0  0  0  0  0  0  0  0  0  0  0
   -1.3828   -1.7571    0.0000 C   0  0  0  0  0  0  0  0  0  0  0  0
   -1.0597   -0.2923    0.0000 N   0  0  0  0  0  0  0  0  0  0  0  0
    0.3704    0.1603    0.0000 C   0  0  0  0  0  0  0  0  0  0  0  0
    1.4774   -0.8518    0.0000 C   0  0  0  0  0  0  0  0  0  0  0  0
    2.9075   -0.3992    0.0000 C   0  0  0  0  0  0  0  0  0  0  0  0
    3.2305    1.0656    0.0000 C   0  0  0  0  0  0  0  0  0  0  0  0
    2.1235    2.0778    0.0000 C   0  0  0  0  0  0  0  0  0  0  0  0
    0.6934    1.6251    0.0000 C   0  0  0  0  0  0  0  0  0  0  0  0
   -0.4136    2.6373    0.0000 F   0  0  0  0  0  0  0  0  0  0  0  0
    4.6606    1.5183    0.0000 C   0  0  0  0  0  0  0  0  0  0  0  0
    4.9836    2.9831    0.0000 O   0  0  0  0  0  0  0  0  0  0  0  0
    5.7676    0.5061    0.0000 C   0  0  0  0  0  0  0  0  0  0  0  0
    7.1977    0.9587    0.0000 C   0  0  0  0  0  0  0  0  0  0  0  0
    7.5207    2.4235    0.0000 O   0  0  0  0  0  0  0  0  0  0  0  0
    8.3047   -0.0534    0.0000 O   0  0  0  0  0  0  0  0  0  0  0  0
    5.4446   -0.9587    0.0000 C   0  0  0  0  0  0  0  0  0  0  0  0
    4.0145   -1.4114    0.0000 N   0  0  0  0  0  0  0  0  0  0  0  0
    4.4671   -2.8414    0.0000 C   0  0  0  0  0  0  0  0  0  0  0  0
    3.7760   -4.1727    0.0000 C   0  0  0  0  0  0  0  0  0  0  0  0
    5.8972   -2.3888    0.0000 S   0  0  0  0  0  0  0  0  0  0  0  0
   -2.1668    0.7199    0.0000 C   0  0  0  0  0  0  0  0  0  0  0  0
   -3.5968    0.2672    0.0000 C   0  0  0  0  0  0  0  0  0  0  0  0
  1  2  1  0
  2  3  1  0
  3  4  1  0
  4  5  2  0
  4  6  1  0
  6  7  1  0
  7  8  1  0
  8  9  1  0
  9 10  1  0
 10 11  1  0
 11 12  1  0
 12 13  1  0
 13 14  2  0
 14 15  1  0
 15 16  2  0
 16 17  1  0
 17 18  2  0
 18 19  1  0
 16 20  1  0
 20 21  2  0
 20 22  1  0
 22 23  1  0
 23 24  2  0
 23 25  1  0
 22 26  2  0
 26 27  1  0
 27 28  1  0
 28 29  1  6
 28 30  1  0
 12 31  1  0
 31 32  1  0
  7  2  2  0
 32  9  1  0
 18 13  1  0
 30 26  1  0
 27 15  1  0
M  END
> <Identifier>
PRULIFLOXACIN

> <hERG>
0

$$$$

     RDKit          2D

 21 23  0  0  0  0  0  0  0  0999 V2000
   -1.5595    0.5560    0.0000 C   0  0  0  0  0  0  0  0  0  0  0  0
   -2.3564    0.5758    0.0000 N   0  0  0  0  0  4  0  0  0  0  0  0
   -2.8835    1.9801    0.0000 C   0  0  0  0  0  0  0  0  0  0  0  0
   -4.3820    1.9128    0.0000 C   0  0  0  0  0  0  0  0  0  0  0  0
   -4.7810    0.4668    0.0000 C   0  0  0  0  0  0  0  0  0  0  0  0
   -3.5292   -0.3595    0.0000 C   0  0  0  0  0  0  0  0  0  0  0  0
   -2.1287   -0.9234    0.0000 C   0  0  0  0  0  0  0  0  0  0  0  0
   -1.7513   -2.3751    0.0000 C   0  0  0  0  0  0  0  0  0  0  0  0
   -0.3053   -2.7741    0.0000 O   0  0  0  0  0  0  0  0  0  0  0  0
   -2.8198   -3.4278    0.0000 O   0  0  0  0  0  1  0  0  0  0  0  0
   -1.0602    0.1293    0.0000 C   0  0  0  0  0  0  0  0  0  0  0  0
    0.3858   -0.2697    0.0000 O   0  0  0  0  0  0  0  0  0  0  0  0
    1.4543    0.7830    0.0000 C   0  0  0  0  0  0  0  0  0  0  0  0
    1.0769    2.2348    0.0000 O   0  0  0  0  0  0  0  0  0  0  0  0
    2.9003    0.3840    0.0000 C   0  0  0  0  0  0  0  0  0  0  0  0
    3.2777   -1.0677    0.0000 C   0  0  0  0  0  0  0  0  0  0  0  0
    4.7237   -1.4667    0.0000 C   0  0  0  0  0  0  0  0  0  0  0  0
    5.7922   -0.4140    0.0000 C   0  0  0  0  0  0  0  0  0  0  0  0
    5.4148    1.0377    0.0000 C   0  0  0  0  0  0  0  0  0  0  0  0
    3.9688    1.4367    0.0000 C   0  0  0  0  0  0  0  0  0  0  0  0
   -1.4376    1.5811    0.0000 C   0  0  0  0  0  0  0  0  0  0  0  0
  1  2  1  0
  2  3  1  0
  3  4  1  1
  4  5  1  0
  6  5  1  1
  6  7  1  0
  7  8  1  6
  8  9  2  0
  8 10  1  0
  7 11  1  0
 11 12  1  1
 12 13  1  0
 13 14  2  0
 13 15  1  0
 15 16  2  0
 16 17  1  0
 17 18  2  0
 18 19  1  0
 19 20  2  0
 11 21  1  0
  6  2  1  0
 20 15  1  0
 21  3  1  0
M  CHG  2   2   1  10  -1
M  END
> <Identifier>
BENZOYLECGONINE

> <hERG>
0

$$$$

     RDKit          2D

 27 31  0  0  0  0  0  0  0  0999 V2000
   -4.9124   -4.3091    0.0000 C   0  0  0  0  0  0  0  0  0  0  0  0
   -4.4920   -2.8693    0.0000 C   0  0  0  0  0  0  0  0  0  0  0  0
   -5.5288   -1.7852    0.0000 O   0  0  0  0  0  0  0  0  0  0  0  0
   -3.0348   -2.5134    0.0000 O   0  0  0  0  0  0  0  0  0  0  0  0
   -2.6144   -1.0736    0.0000 C   0  0  0  0  0  0  0  0  0  0  0  0
   -3.6512    0.0105    0.0000 C   0  0  0  0  0  0  0  0  0  0  0  0
   -3.2307    1.4504    0.0000 C   0  0  0  0  0  0  0  0  0  0  0  0
   -1.7735    1.8062    0.0000 C   0  0  0  0  0  0  0  0  0  0  0  0
   -0.7368    0.7222    0.0000 C   0  0  0  0  0  0  0  0  0  0  0  0
   -1.1572   -0.7177    0.0000 C   0  0  0  0  0  0  0  0  0  0  0  0
    0.0823   -1.5625    0.0000 O   0  0  0  0  0  0  0  0  0  0  0  0
    1.2687   -0.6448    0.0000 C   0  0  0  0  0  0  0  0  0  0  0  0
    2.7447   -0.9124    0.0000 C   0  0  0  0  0  0  0  0  0  0  0  0
    3.2509   -2.3244    0.0000 O   0  0  0  0  0  0  0  0  0  0  0  0
    4.7268   -2.5920    0.0000 C   0  0  0  0  0  0  0  0  0  0  0  0
    5.2330   -4.0040    0.0000 C   0  0  0  0  0  0  0  0  0  0  0  0
    5.6965   -1.4476    0.0000 O   0  0  0  0  0  0  0  0  0  0  0  0
    3.7144    0.2320    0.0000 C   0  0  0  0  0  0  0  0  0  0  0  0
    3.2082    1.6440    0.0000 C   0  0  0  0  0  0  0  0  0  0  0  0
    1.7323    1.9116    0.0000 C   0  0  0  0  0  0  0  0  0  0  0  0
    1.2261    3.3236    0.0000 C   0  0  0  0  0  0  0  0  0  0  0  0
   -0.9530    3.0618    0.0000 C   0  0  0  0  0  0  0  0  0  0  0  0
   -0.0137    2.9323    0.0000 N   0  0  0  0  0  0  0  0  0  0  0  0
   -0.7561    5.0033    0.0000 C   0  0  0  0  0  0  0  0  0  0  0  0
   -0.5308    2.3220    0.0000 C   0  0  0  0  0  0  0  0  0  0  0  0
   -0.2609    1.5689    0.0000 C   0  0  0  0  0  0  0  0  0  0  0  0
    0.7625    0.7672    0.0000 C   0  0  0  0  0  0  0  0  0  0  0  0
  1  2  1  0
  2  3  2  0
  2  4  1  0
  4  5  1  0
  5  6  2  0
  6  7  1  0
  7  8  2  0
  8  9  1  0
  9 10  2  0
 10 11  1  0
 12 11  1  6
 12 13  1  0
 13 14  1  6
 14 15  1  0
 15 16  1  0
 15 17  2  0
 13 18  1  0
 18 19  2  0
 20 19  1  6
 20 21  1  0
 21 22  1  6
 21 23  1  0
 23 24  1  0
 23 25  1  0
 25 26  1  0
 27 26  1  1
 10  5  1  0
 27 12  1  0
 22  8  1  0
 27  9  1  0
 27 20  1  0
M  END
> <Identifier>
HEROIN

> <hERG>
0

$$$$

     RDKit          2D

 35 38  0  0  0  0  0  0  0  0999 V2000
   -9.9263   -1.9121    0.0000 C   0  0  0  0  0  0  0  0  0  0  0  0
  -10.2923   -0.4574    0.0000 C   0  0  0  0  0  0  0  0  0  0  0  0
  -10.6582    0.9973    0.0000 C   0  0  0  0  0  0  0  0  0  0  0  0
  -11.7469   -0.8233    0.0000 O   0  0  0  0  0  0  0  0  0  0  0  0
   -8.8376   -0.0914    0.0000 C   0  0  0  0  0  0  0  0  0  0  0  0
   -8.4272    1.3513    0.0000 C   0  0  0  0  0  0  0  0  0  0  0  0
   -6.9725    1.7173    0.0000 C   0  0  0  0  0  0  0  0  0  0  0  0
   -5.9282    0.6405    0.0000 C   0  0  0  0  0  0  0  0  0  0  0  0
   -4.4736    1.0064    0.0000 C   0  0  0  0  0  0  0  0  0  0  0  0
   -4.0631    2.4492    0.0000 O   0  0  0  0  0  0  0  0  0  0  0  0
   -3.4293   -0.0704    0.0000 C   0  0  0  0  0  0  0  0  0  0  0  0
   -1.9746    0.2955    0.0000 C   0  0  0  0  0  0  0  0  0  0  0  0
   -0.9304   -0.7813    0.0000 C   0  0  0  0  0  0  0  0  0  0  0  0
    0.5243   -0.4153    0.0000 N   0  0  0  0  0  4  0  0  0  0  0  0
    1.5686   -1.4921    0.0000 C   0  0  0  0  0  0  0  0  0  0  0  0
    3.0232   -1.1262    0.0000 C   0  0  0  0  0  0  0  0  0  0  0  0
    3.4337    0.3166    0.0000 C   0  0  0  0  0  0  0  0  0  0  0  0
    4.8883    0.6825    0.0000 C   0  0  0  0  0  0  0  0  0  0  0  0
    4.5224    2.1372    0.0000 O   0  0  0  0  0  0  0  0  0  0  0  0
    6.3430    1.0485    0.0000 C   0  0  0  0  0  0  0  0  0  0  0  0
    7.3873   -0.0283    0.0000 C   0  0  0  0  0  0  0  0  0  0  0  0
    8.8419    0.3376    0.0000 C   0  0  0  0  0  0  0  0  0  0  0  0
    9.2524    1.7804    0.0000 C   0  0  0  0  0  0  0  0  0  0  0  0
    8.2081    2.8572    0.0000 C   0  0  0  0  0  0  0  0  0  0  0  0
    6.7534    2.4912    0.0000 C   0  0  0  0  0  0  0  0  0  0  0  0
    5.2543   -0.7722    0.0000 C   0  0  0  0  0  0  0  0  0  0  0  0
    4.1775   -1.8164    0.0000 C   0  0  0  0  0  0  0  0  0  0  0  0
    4.5434   -3.2711    0.0000 C   0  0  0  0  0  0  0  0  0  0  0  0
    5.9862   -3.6815    0.0000 C   0  0  0  0  0  0  0  0  0  0  0  0
    7.0630   -2.6372    0.0000 C   0  0  0  0  0  0  0  0  0  0  0  0
    6.6970   -1.1826    0.0000 C   0  0  0  0  0  0  0  0  0  0  0  0
    2.3894    1.3934    0.0000 C   0  0  0  0  0  0  0  0  0  0  0  0
    0.9347    1.0274    0.0000 C   0  0  0  0  0  0  0  0  0  0  0  0
   -6.3387   -0.8023    0.0000 C   0  0  0  0  0  0  0  0  0  0  0  0
   -7.7933   -1.1683    0.0000 C   0  0  0  0  0  0  0  0  0  0  0  0
  1  2  1  0
  2  3  1  0
  2  4  1  0
  2  5  1  0
  5  6  2  0
  6  7  1  0
  7  8  2  0
  8  9  1  0
  9 10  1  6
  9 11  1  0
 11 12  1  0
 12 13  1  0
 13 14  1  0
 14 15  1  0
 15 16  1  0
 16 17  1  0
 17 18  1  0
 18 19  1  0
 18 20  1  0
 20 21  2  0
 21 22  1  0
 22 23  2  0
 23 24  1  0
 24 25  2  0
 18 26  1  0
 26 27  2  0
 27 28  1  0
 28 29  2  0
 29 30  1  0
 30 31  2  0
 17 32  1  0
 32 33  1  0
  8 34  1  0
 34 35  2  0
 35  5  1  0
 33 14  1  0
 25 20  1  0
 31 26  1  0
M  CHG  1  14   1
M  END
> <Identifier>
SERTINDOLE11

> <hERG>
0

$$$$

     RDKit          2D

 27 30  0  0  0  0  0  0  0  0999 V2000
   -7.4390   -0.4347    0.0000 C   0  0  0  0  0  0  0  0  0  0  0  0
   -5.9571   -0.2026    0.0000 C   0  0  0  0  0  0  0  0  0  0  0  0
   -5.4171    1.1969    0.0000 C   0  0  0  0  0  0  0  0  0  0  0  0
   -3.9352    1.4290    0.0000 C   0  0  0  0  0  0  0  0  0  0  0  0
   -2.9932    0.2617    0.0000 N   0  0  0  0  0  0  0  0  0  0  0  0
   -1.5113    0.4938    0.0000 C   0  0  0  0  0  0  0  0  0  0  0  0
   -0.9713    1.8932    0.0000 C   0  0  0  0  0  0  0  0  0  0  0  0
   -1.9133    3.0606    0.0000 F   0  0  0  0  0  0  0  0  0  0  0  0
    0.5106    2.1253    0.0000 C   0  0  0  0  0  0  0  0  0  0  0  0
    1.0505    3.5248    0.0000 N   0  0  0  0  0  0  0  0  0  0  0  0
    1.4526    0.9580    0.0000 C   0  0  0  0  0  0  0  0  0  0  0  0
    0.9126   -0.4414    0.0000 C   0  0  0  0  0  0  0  0  0  0  0  0
   -0.5693   -0.6736    0.0000 C   0  0  0  0  0  0  0  0  0  0  0  0
   -1.1092   -2.0730    0.0000 O   0  0  0  0  0  0  0  0  0  0  0  0
   -0.1673   -3.2403    0.0000 C   0  0  0  0  0  0  0  0  0  0  0  0
    1.3147   -3.0082    0.0000 C   0  0  0  0  0  0  0  0  0  0  0  0
    2.2567   -4.1756    0.0000 C   0  0  0  0  0  0  0  0  0  0  0  0
    1.8546   -1.6088    0.0000 C   0  0  0  0  0  0  0  0  0  0  0  0
    3.3366   -1.3767    0.0000 C   0  0  0  0  0  0  0  0  0  0  0  0
    3.8765    0.0228    0.0000 C   0  0  0  0  0  0  0  0  0  0  0  0
    5.3584    0.2549    0.0000 C   0  0  0  0  0  0  0  0  0  0  0  0
    5.8984    1.6544    0.0000 O   0  0  0  0  0  0  0  0  0  0  0  0
    6.3004   -0.9124    0.0000 O   0  0  0  0  0  0  0  0  0  0  0  0
    2.9345    1.1901    0.0000 C   0  0  0  0  0  0  0  0  0  0  0  0
    3.4745    2.5896    0.0000 O   0  0  0  0  0  0  0  0  0  0  0  0
   -3.5332   -1.1378    0.0000 C   0  0  0  0  0  0  0  0  0  0  0  0
   -5.0151   -1.3699    0.0000 C   0  0  0  0  0  0  0  0  0  0  0  0
  1  2  1  0
  2  3  1  0
  3  4  1  0
  4  5  1  0
  5  6  1  0
  6  7  2  0
  7  8  1  0
  7  9  1  0
  9 10  1  0
  9 11  2  0
 11 12  1  0
 12 13  2  0
 13 14  1  0
 14 15  1  0
 15 16  1  0
 16 17  1  6
 16 18  1  0
 18 19  1  1
 19 20  2  0
 20 21  1  0
 21 22  2  0
 21 23  1  0
 20 24  1  0
 24 25  2  0
  5 26  1  0
 26 27  1  0
 27  2  1  0
 13  6  1  0
 24 11  1  0
 18 12  1  0
M  END
> <Identifier>
ANTOFLOXACIN

> <hERG>
0

$$$$

     RDKit          2D

 31 37  0  0  0  0  0  0  0  0999 V2000
   -5.1694   -3.2086    0.0000 C   0  0  0  0  0  0  0  0  0  0  0  0
   -4.2066   -2.0583    0.0000 C   0  0  0  0  0  0  0  0  0  0  0  0
   -2.7291   -2.3169    0.0000 C   0  0  0  0  0  0  0  0  0  0  0  0
   -1.7664   -1.1666    0.0000 C   0  0  0  0  0  0  0  0  0  0  0  0
   -0.5291   -0.7678    0.0000 C   0  0  0  0  0  0  0  0  0  0  0  0
    0.6739   -0.2750    0.0000 C   0  0  0  0  0  0  0  0  0  0  0  0
    2.1729   -0.2207    0.0000 C   0  0  0  0  0  0  0  0  0  0  0  0
    3.2163   -1.2984    0.0000 C   0  0  0  0  0  0  0  0  0  0  0  0
    4.6712   -0.9337    0.0000 C   0  0  0  0  0  0  0  0  0  0  0  0
    5.0829    0.5087    0.0000 C   0  0  0  0  0  0  0  0  0  0  0  0
    6.5379    0.8734    0.0000 O   0  0  0  0  0  0  0  0  0  0  0  0
    7.5812   -0.2043    0.0000 C   0  0  0  0  0  0  0  0  0  0  0  0
    9.0362    0.1605    0.0000 C   0  0  0  0  0  0  0  0  0  0  0  0
    7.1696   -1.6467    0.0000 O   0  0  0  0  0  0  0  0  0  0  0  0
    4.0395    1.5864    0.0000 C   0  0  0  0  0  0  0  0  0  0  0  0
    2.5846    1.2217    0.0000 C   0  0  0  0  0  0  0  0  0  0  0  0
    2.8432    2.6992    0.0000 C   0  0  0  0  0  0  0  0  0  0  0  0
    1.3399    2.0589    0.0000 C   0  0  0  0  0  0  0  0  0  0  0  0
    0.1591    1.1339    0.0000 N   0  0  0  0  0  0  0  0  0  0  0  0
   -1.3185    1.3925    0.0000 C   0  0  0  0  0  0  0  0  0  0  0  0
   -2.2812    0.2422    0.0000 C   0  0  0  0  0  0  0  0  0  0  0  0
   -2.7960    1.6511    0.0000 O   0  0  0  0  0  0  0  0  0  0  0  0
   -3.7587    0.5009    0.0000 C   0  0  0  0  0  0  0  0  0  0  0  0
   -4.2735    1.9097    0.0000 O   0  0  0  0  0  0  0  0  0  0  0  0
   -5.7511    2.1684    0.0000 C   0  0  0  0  0  0  0  0  0  0  0  0
   -6.2659    3.5772    0.0000 C   0  0  0  0  0  0  0  0  0  0  0  0
   -6.7138    1.0181    0.0000 O   0  0  0  0  0  0  0  0  0  0  0  0
   -4.7215   -0.6494    0.0000 C   0  0  0  0  0  0  0  0  0  0  0  0
   -1.9497   -2.2860    0.0000 C   0  0  0  0  0  0  0  0  0  0  0  0
   -2.3904   -3.7198    0.0000 O   0  0  0  0  0  0  0  0  0  0  0  0
   -0.4876   -1.9507    0.0000 C   0  0  0  0  0  0  0  0  0  0  0  0
  1  2  2  0
  2  3  1  0
  4  3  1  1
  4  5  1  0
  6  5  1  6
  6  7  1  0
  7  8  1  0
  8  9  1  6
  9 10  1  0
 10 11  1  6
 11 12  1  0
 12 13  1  0
 12 14  2  0
 10 15  1  0
 15 16  1  0
 16 17  1  1
 16 18  1  0
 18 19  1  0
 20 19  1  1
 20 21  1  0
 21 22  1  1
 21 23  1  0
 23 24  1  6
 24 25  1  0
 25 26  1  0
 25 27  2  0
 23 28  1  0
 28 29  1  0
 29 30  1  6
 31 29  1  6
 28  2  1  1
 21  4  1  0
 31  4  1  0
 19  6  1  0
  7 16  1  6
 20  8  1  0
 31  8  1  0
M  END
> <Identifier>
ACEHYTISINE

> <hERG>
0

$$$$

     RDKit          2D

 33 37  0  0  0  0  0  0  0  0999 V2000
   -8.9187    1.4046    0.0000 O   0  0  0  0  0  0  0  0  0  0  0  0
   -8.9271   -0.0954    0.0000 C   0  0  0  0  0  0  0  0  0  0  0  0
  -10.1455   -0.9703    0.0000 N   0  0  0  0  0  0  0  0  0  0  0  0
   -9.6900   -2.3995    0.0000 C   0  0  0  0  0  0  0  0  0  0  0  0
   -8.1900   -2.4078    0.0000 C   0  0  0  0  0  0  0  0  0  0  0  0
   -7.7185   -0.9839    0.0000 N   0  0  0  0  0  0  0  0  0  0  0  0
   -6.2894   -0.5283    0.0000 C   0  0  0  0  0  0  0  0  0  0  0  0
   -5.1803   -1.5383    0.0000 C   0  0  0  0  0  0  0  0  0  0  0  0
   -3.7511   -1.0827    0.0000 N   0  0  0  0  0  4  0  0  0  0  0  0
   -2.6421   -2.0926    0.0000 C   0  0  0  0  0  0  0  0  0  0  0  0
   -1.2129   -1.6371    0.0000 C   0  0  0  0  0  0  0  0  0  0  0  0
   -0.8928   -0.1717    0.0000 C   0  0  0  0  0  0  0  0  0  0  0  0
    0.5363    0.2839    0.0000 C   0  0  0  0  0  0  0  0  0  0  0  0
    1.7449   -0.6046    0.0000 C   0  0  0  0  0  0  0  0  0  0  0  0
    2.9633    0.2703    0.0000 N   0  0  0  0  0  0  0  0  0  0  0  0
    4.3873   -0.2012    0.0000 C   0  0  0  0  0  0  0  0  0  0  0  0
    4.6910   -1.6701    0.0000 C   0  0  0  0  0  0  0  0  0  0  0  0
    6.1149   -2.1416    0.0000 C   0  0  0  0  0  0  0  0  0  0  0  0
    7.2353   -1.1442    0.0000 C   0  0  0  0  0  0  0  0  0  0  0  0
    8.6592   -1.6157    0.0000 C   0  0  0  0  0  0  0  0  0  0  0  0
    8.9629   -3.0846    0.0000 C   0  0  0  0  0  0  0  0  0  0  0  0
   10.3868   -3.5561    0.0000 O   0  0  0  0  0  0  0  0  0  0  0  0
    6.9316    0.3247    0.0000 C   0  0  0  0  0  0  0  0  0  0  0  0
    5.5076    0.7962    0.0000 C   0  0  0  0  0  0  0  0  0  0  0  0
    2.5078    1.6995    0.0000 C   0  0  0  0  0  0  0  0  0  0  0  0
    3.2651    2.9943    0.0000 C   0  0  0  0  0  0  0  0  0  0  0  0
    2.5224    4.2975    0.0000 C   0  0  0  0  0  0  0  0  0  0  0  0
    1.0224    4.3059    0.0000 C   0  0  0  0  0  0  0  0  0  0  0  0
    0.2797    5.6091    0.0000 Cl  0  0  0  0  0  0  0  0  0  0  0  0
    0.2651    3.0111    0.0000 C   0  0  0  0  0  0  0  0  0  0  0  0
    1.0078    1.7079    0.0000 C   0  0  0  0  0  0  0  0  0  0  0  0
   -2.0019    0.8383    0.0000 C   0  0  0  0  0  0  0  0  0  0  0  0
   -3.4311    0.3827    0.0000 C   0  0  0  0  0  0  0  0  0  0  0  0
  1  2  2  0
  2  3  1  0
  3  4  1  0
  4  5  1  0
  5  6  1  0
  6  7  1  0
  7  8  1  0
  8  9  1  0
  9 10  1  0
 10 11  1  0
 11 12  1  0
 12 13  1  0
 13 14  2  0
 14 15  1  0
 15 16  1  0
 16 17  2  0
 17 18  1  0
 18 19  2  0
 19 20  1  0
 20 21  1  0
 21 22  1  0
 19 23  1  0
 23 24  2  0
 15 25  1  0
 25 26  2  0
 26 27  1  0
 27 28  2  0
 28 29  1  0
 28 30  1  0
 30 31  2  0
 12 32  1  0
 32 33  1  0
  6  2  1  0
 33  9  1  0
 31 13  1  0
 24 16  1  0
 31 25  1  0
M  CHG  1   9   1
M  END
> <Identifier>
SERTINDOLE4

> <hERG>
0

$$$$

     RDKit          2D

 24 27  0  0  0  0  0  0  0  0999 V2000
   -1.0784   -4.1960    0.0000 C   0  0  0  0  0  0  0  0  0  0  0  0
   -1.8645   -2.9185    0.0000 C   0  0  0  0  0  0  0  0  0  0  0  0
   -3.3238   -2.5711    0.0000 S   0  0  0  0  0  0  0  0  0  0  0  0
   -2.9764   -1.1119    0.0000 C   0  0  0  0  0  0  0  0  0  0  0  0
   -3.4051    0.3255    0.0000 C   0  0  0  0  0  0  0  0  0  0  0  0
   -4.8644    0.6729    0.0000 C   0  0  0  0  0  0  0  0  0  0  0  0
   -5.8948   -0.4171    0.0000 O   0  0  0  0  0  0  0  0  0  0  0  0
   -5.2931    2.1103    0.0000 O   0  0  0  0  0  0  0  0  0  0  0  0
   -2.3747    1.4155    0.0000 C   0  0  0  0  0  0  0  0  0  0  0  0
   -2.8034    2.8529    0.0000 O   0  0  0  0  0  0  0  0  0  0  0  0
   -0.9155    1.0681    0.0000 C   0  0  0  0  0  0  0  0  0  0  0  0
    0.1150    2.1582    0.0000 C   0  0  0  0  0  0  0  0  0  0  0  0
    1.5742    1.8108    0.0000 C   0  0  0  0  0  0  0  0  0  0  0  0
    2.6047    2.9008    0.0000 F   0  0  0  0  0  0  0  0  0  0  0  0
    2.0030    0.3734    0.0000 C   0  0  0  0  0  0  0  0  0  0  0  0
    3.4622    0.0260    0.0000 N   0  0  0  0  0  0  0  0  0  0  0  0
    3.8910   -1.4114    0.0000 C   0  0  0  0  0  0  0  0  0  0  0  0
    5.3502   -1.7588    0.0000 C   0  0  0  0  0  0  0  0  0  0  0  0
    6.3806   -0.6688    0.0000 N   0  0  0  0  0  0  0  0  0  0  0  0
    5.9519    0.7686    0.0000 C   0  0  0  0  0  0  0  0  0  0  0  0
    4.4927    1.1160    0.0000 C   0  0  0  0  0  0  0  0  0  0  0  0
    0.9725   -0.7167    0.0000 C   0  0  0  0  0  0  0  0  0  0  0  0
   -0.4867   -0.3693    0.0000 C   0  0  0  0  0  0  0  0  0  0  0  0
   -1.5172   -1.4593    0.0000 N   0  0  0  0  0  0  0  0  0  0  0  0
  2  1  1  1
  2  3  1  0
  3  4  1  0
  4  5  2  0
  5  6  1  0
  6  7  2  0
  6  8  1  0
  5  9  1  0
  9 10  2  0
  9 11  1  0
 11 12  2  0
 12 13  1  0
 13 14  1  0
 13 15  2  0
 15 16  1  0
 16 17  1  0
 17 18  1  0
 18 19  1  0
 19 20  1  0
 20 21  1  0
 15 22  1  0
 22 23  2  0
 23 24  1  0
 24  2  1  0
 24  4  1  0
 23 11  1  0
 21 16  1  0
M  END
> <Identifier>
AF3013

> <hERG>
0

$$$$

     RDKit          2D

 25 26  0  0  0  0  0  0  0  0999 V2000
   -5.5717   -0.4564    0.0000 C   0  0  0  0  0  0  0  0  0  0  0  0
   -4.3862    0.4627    0.0000 O   0  0  0  0  0  0  0  0  0  0  0  0
   -2.9975   -0.1044    0.0000 C   0  0  0  0  0  0  0  0  0  0  0  0
   -2.7943   -1.5905    0.0000 O   0  0  0  0  0  0  0  0  0  0  0  0
   -1.8121    0.8147    0.0000 C   0  0  0  0  0  0  0  0  0  0  0  0
   -2.0153    2.3009    0.0000 C   0  0  0  0  0  0  0  0  0  0  0  0
   -3.4040    2.8680    0.0000 C   0  0  0  0  0  0  0  0  0  0  0  0
   -0.8299    3.2200    0.0000 N   0  0  0  0  0  0  0  0  0  0  0  0
    0.5588    2.6529    0.0000 C   0  0  0  0  0  0  0  0  0  0  0  0
    1.7442    3.5720    0.0000 C   0  0  0  0  0  0  0  0  0  0  0  0
    0.7620    1.1667    0.0000 C   0  0  0  0  0  0  0  0  0  0  0  0
    2.1507    0.5996    0.0000 C   0  0  0  0  0  0  0  0  0  0  0  0
    2.4466   -0.1406    0.0000 O   0  0  0  0  0  0  0  0  0  0  0  0
    3.3361    1.5187    0.0000 O   0  0  0  0  0  0  0  0  0  0  0  0
    4.7248    0.9517    0.0000 C   0  0  0  0  0  0  0  0  0  0  0  0
   -0.4234    0.2476    0.0000 C   0  0  0  0  0  0  0  0  0  0  0  0
   -0.2202   -1.2385    0.0000 C   0  0  0  0  0  0  0  0  0  0  0  0
   -1.4056   -2.1576    0.0000 C   0  0  0  0  0  0  0  0  0  0  0  0
   -1.2024   -3.6438    0.0000 C   0  0  0  0  0  0  0  0  0  0  0  0
    0.1863   -4.2109    0.0000 C   0  0  0  0  0  0  0  0  0  0  0  0
    1.3717   -3.2918    0.0000 C   0  0  0  0  0  0  0  0  0  0  0  0
    1.1685   -1.8056    0.0000 C   0  0  0  0  0  0  0  0  0  0  0  0
    2.3539   -0.8865    0.0000 N   0  0  0  0  0  4  0  0  0  0  0  0
    2.5164    0.6047    0.0000 O   0  0  0  0  0  0  0  0  0  0  0  0
    3.7426   -1.4536    0.0000 O   0  0  0  0  0  1  0  0  0  0  0  0
  1  2  1  0
  2  3  1  0
  3  4  2  0
  3  5  1  0
  5  6  2  0
  6  7  1  0
  6  8  1  0
  8  9  1  0
  9 10  1  0
  9 11  2  0
 11 12  1  0
 12 13  2  0
 12 14  1  0
 14 15  1  0
 11 16  1  0
 16 17  1  0
 17 18  2  0
 18 19  1  0
 19 20  2  0
 20 21  1  0
 21 22  2  0
 22 23  1  0
 23 24  2  0
 23 25  1  0
 16  5  1  0
 22 17  1  0
M  CHG  2  23   1  25  -1
M  END
> <Identifier>
NIFEDIPINE

> <hERG>
0

$$$$

     RDKit          2D

 26 29  0  0  0  0  0  0  0  0999 V2000
    2.3542   -4.0070    0.0000 C   0  0  0  0  0  0  0  0  0  0  0  0
    1.3957   -2.8531    0.0000 C   0  0  0  0  0  0  0  0  0  0  0  0
   -0.0828   -3.1063    0.0000 C   0  0  0  0  0  0  0  0  0  0  0  0
   -1.0412   -1.9524    0.0000 O   0  0  0  0  0  0  0  0  0  0  0  0
   -0.5212   -0.5454    0.0000 C   0  0  0  0  0  0  0  0  0  0  0  0
   -1.4797    0.6084    0.0000 C   0  0  0  0  0  0  0  0  0  0  0  0
   -2.9581    0.3553    0.0000 N   0  0  0  0  0  0  0  0  0  0  0  0
   -3.9166    1.5091    0.0000 C   0  0  0  0  0  0  0  0  0  0  0  0
   -5.3951    1.2560    0.0000 C   0  0  0  0  0  0  0  0  0  0  0  0
   -5.9151   -0.1510    0.0000 N   0  0  0  0  0  4  0  0  0  0  0  0
   -7.3936   -0.4041    0.0000 C   0  0  0  0  0  0  0  0  0  0  0  0
   -4.9567   -1.3048    0.0000 C   0  0  0  0  0  0  0  0  0  0  0  0
   -3.4782   -1.0517    0.0000 C   0  0  0  0  0  0  0  0  0  0  0  0
   -0.9596    2.0154    0.0000 C   0  0  0  0  0  0  0  0  0  0  0  0
   -1.9181    3.1692    0.0000 F   0  0  0  0  0  0  0  0  0  0  0  0
    0.5189    2.2685    0.0000 C   0  0  0  0  0  0  0  0  0  0  0  0
    1.4773    1.1146    0.0000 C   0  0  0  0  0  0  0  0  0  0  0  0
    2.9558    1.3678    0.0000 C   0  0  0  0  0  0  0  0  0  0  0  0
    3.4758    2.7747    0.0000 O   0  0  0  0  0  0  0  0  0  0  0  0
    3.9143    0.2139    0.0000 C   0  0  0  0  0  0  0  0  0  0  0  0
    5.3928    0.4670    0.0000 C   0  0  0  0  0  0  0  0  0  0  0  0
    5.9128    1.8740    0.0000 O   0  0  0  0  0  0  0  0  0  0  0  0
    6.3512   -0.6868    0.0000 O   0  0  0  0  0  1  0  0  0  0  0  0
    3.3942   -1.1930    0.0000 C   0  0  0  0  0  0  0  0  0  0  0  0
    1.9157   -1.4462    0.0000 N   0  0  0  0  0  0  0  0  0  0  0  0
    0.9573   -0.2923    0.0000 C   0  0  0  0  0  0  0  0  0  0  0  0
  2  1  1  1
  2  3  1  0
  3  4  1  0
  4  5  1  0
  5  6  1  0
  6  7  1  0
  7  8  1  0
  8  9  1  0
  9 10  1  0
 10 11  1  0
 10 12  1  0
 12 13  1  0
  6 14  2  0
 14 15  1  0
 14 16  1  0
 16 17  2  0
 17 18  1  0
 18 19  2  0
 18 20  1  0
 20 21  1  0
 21 22  2  0
 21 23  1  0
 20 24  2  0
 24 25  1  0
 25 26  1  0
 25  2  1  0
 26  5  2  0
 13  7  1  0
 26 17  1  0
M  CHG  2  10   1  23  -1
M  END
> <Identifier>
LEVOFLOXACIN

> <hERG>
0

$$$$

     RDKit          2D

 24 27  0  0  0  0  0  0  0  0999 V2000
   -6.0299   -0.6150    0.0000 O   0  0  0  0  0  0  0  0  0  0  0  0
   -5.0474    0.5184    0.0000 C   0  0  0  0  0  0  0  0  0  0  0  0
   -5.5376    1.9360    0.0000 O   0  0  0  0  0  1  0  0  0  0  0  0
   -3.5745    0.2341    0.0000 C   0  0  0  0  0  0  0  0  0  0  0  0
   -3.0843   -1.1835    0.0000 C   0  0  0  0  0  0  0  0  0  0  0  0
   -1.6115   -1.4678    0.0000 N   0  0  0  0  0  4  0  0  0  0  0  0
   -1.1212   -2.8854    0.0000 C   0  0  0  0  0  0  0  0  0  0  0  0
    0.0121   -3.8680    0.0000 C   0  0  0  0  0  0  0  0  0  0  0  0
   -1.4055   -4.3582    0.0000 C   0  0  0  0  0  0  0  0  0  0  0  0
   -0.6289   -0.3344    0.0000 C   0  0  0  0  0  0  0  0  0  0  0  0
    0.8439   -0.6187    0.0000 C   0  0  0  0  0  0  0  0  0  0  0  0
    1.8265    0.5147    0.0000 C   0  0  0  0  0  0  0  0  0  0  0  0
    3.2993    0.2305    0.0000 N   0  0  0  0  0  0  0  0  0  0  0  0
    3.7896   -1.1872    0.0000 C   0  0  0  0  0  0  0  0  0  0  0  0
    5.2624   -1.4714    0.0000 C   0  0  0  0  0  0  0  0  0  0  0  0
    6.2450   -0.3380    0.0000 N   0  0  0  0  0  4  0  0  0  0  0  0
    5.7547    1.0796    0.0000 C   0  0  0  0  0  0  0  0  0  0  0  0
    4.2819    1.3638    0.0000 C   0  0  0  0  0  0  0  0  0  0  0  0
    1.3363    1.9324    0.0000 C   0  0  0  0  0  0  0  0  0  0  0  0
    2.3188    3.0657    0.0000 F   0  0  0  0  0  0  0  0  0  0  0  0
   -0.1366    2.2166    0.0000 C   0  0  0  0  0  0  0  0  0  0  0  0
   -1.1191    1.0832    0.0000 C   0  0  0  0  0  0  0  0  0  0  0  0
   -2.5920    1.3675    0.0000 C   0  0  0  0  0  0  0  0  0  0  0  0
   -3.0822    2.7851    0.0000 O   0  0  0  0  0  0  0  0  0  0  0  0
  1  2  2  0
  2  3  1  0
  2  4  1  0
  4  5  2  0
  5  6  1  0
  6  7  1  0
  7  8  1  0
  8  9  1  0
  6 10  2  0
 10 11  1  0
 11 12  2  0
 12 13  1  0
 13 14  1  0
 14 15  1  0
 15 16  1  0
 16 17  1  0
 17 18  1  0
 12 19  1  0
 19 20  1  0
 19 21  2  0
 22 21  1  6
 22 23  1  0
 23 24  2  0
 23  4  1  0
  9  7  1  0
 22 10  1  0
 18 13  1  0
M  CHG  3   3  -1   6   1  16   1
M  END
> <Identifier>
CIPROFLOXACIN

> <hERG>
0

$$$$

     RDKit          2D

 19 19  0  0  0  0  0  0  0  0999 V2000
   -8.1430    0.0395    0.0000 C   0  0  0  0  0  0  0  0  0  0  0  0
   -6.7514    0.5995    0.0000 C   0  0  0  0  0  0  0  0  0  0  0  0
   -6.5406    2.0846    0.0000 C   0  0  0  0  0  0  0  0  0  0  0  0
   -5.5707   -0.3256    0.0000 N   0  0  0  0  0  4  0  0  0  0  0  0
   -4.1791    0.2344    0.0000 C   0  0  0  0  0  0  0  0  0  0  0  0
   -2.9984   -0.6907    0.0000 C   0  0  0  0  0  0  0  0  0  0  0  0
   -3.2092   -2.1759    0.0000 O   0  0  0  0  0  0  0  0  0  0  0  0
   -1.6068   -0.1307    0.0000 C   0  0  0  0  0  0  0  0  0  0  0  0
   -0.4261   -1.0559    0.0000 O   0  0  0  0  0  0  0  0  0  0  0  0
    0.9655   -0.4959    0.0000 C   0  0  0  0  0  0  0  0  0  0  0  0
    1.1763    0.9892    0.0000 C   0  0  0  0  0  0  0  0  0  0  0  0
    2.5678    1.5492    0.0000 C   0  0  0  0  0  0  0  0  0  0  0  0
    3.7485    0.6241    0.0000 C   0  0  0  0  0  0  0  0  0  0  0  0
    5.1401    1.1841    0.0000 C   0  0  0  0  0  0  0  0  0  0  0  0
    6.3208    0.2590    0.0000 C   0  0  0  0  0  0  0  0  0  0  0  0
    7.7124    0.8190    0.0000 N   0  0  0  0  0  0  0  0  0  0  0  0
    6.1100   -1.2261    0.0000 O   0  0  0  0  0  0  0  0  0  0  0  0
    3.5377   -0.8610    0.0000 C   0  0  0  0  0  0  0  0  0  0  0  0
    2.1462   -1.4210    0.0000 C   0  0  0  0  0  0  0  0  0  0  0  0
  1  2  1  0
  2  3  1  0
  2  4  1  0
  4  5  1  0
  5  6  1  0
  6  7  1  6
  6  8  1  0
  8  9  1  0
  9 10  1  0
 10 11  2  0
 11 12  1  0
 12 13  2  0
 13 14  1  0
 14 15  1  0
 15 16  1  0
 15 17  2  0
 13 18  1  0
 18 19  2  0
 19 10  1  0
M  CHG  1   4   1
M  END
> <Identifier>
ATENOLOL (RACEMATE)

> <hERG>
0

$$$$

     RDKit          2D

 21 25  0  0  0  0  0  0  0  0999 V2000
   -1.1643   -4.0926    0.0000 C   0  0  0  0  0  0  0  0  0  0  0  0
   -0.2055   -2.1126    0.0000 N   0  0  0  0  0  4  0  0  0  0  0  0
   -0.6547   -1.4506    0.0000 C   0  0  0  0  0  0  0  0  0  0  0  0
   -0.3060   -0.7306    0.0000 C   0  0  0  0  0  0  0  0  0  0  0  0
    0.7970   -0.0425    0.0000 C   0  0  0  0  0  0  0  0  0  0  0  0
   -0.6890    0.1620    0.0000 C   0  0  0  0  0  0  0  0  0  0  0  0
   -1.8354   -0.8054    0.0000 C   0  0  0  0  0  0  0  0  0  0  0  0
   -3.2463   -0.2963    0.0000 C   0  0  0  0  0  0  0  0  0  0  0  0
   -3.5110    1.1802    0.0000 C   0  0  0  0  0  0  0  0  0  0  0  0
   -2.3646    2.1476    0.0000 C   0  0  0  0  0  0  0  0  0  0  0  0
   -2.6293    3.6240    0.0000 O   0  0  0  0  0  0  0  0  0  0  0  0
   -0.9537    1.6385    0.0000 C   0  0  0  0  0  0  0  0  0  0  0  0
    0.3688    2.3465    0.0000 O   0  0  0  0  0  0  0  0  0  0  0  0
    1.4507    1.3075    0.0000 C   0  0  0  0  0  0  0  0  0  0  0  0
    2.9468    1.4164    0.0000 C   0  0  0  0  0  0  0  0  0  0  0  0
    3.6005    2.7664    0.0000 O   0  0  0  0  0  0  0  0  0  0  0  0
    3.7891    0.1752    0.0000 C   0  0  0  0  0  0  0  0  0  0  0  0
    3.1353   -1.1749    0.0000 C   0  0  0  0  0  0  0  0  0  0  0  0
    1.6393   -1.2837    0.0000 C   0  0  0  0  0  0  0  0  0  0  0  0
    0.9855   -2.6338    0.0000 C   0  0  0  0  0  0  0  0  0  0  0  0
   -1.1532   -2.1413    0.0000 C   0  0  0  0  0  0  0  0  0  0  0  0
  1  2  1  0
  2  3  1  0
  3  4  1  0
  5  4  1  6
  5  6  1  0
  6  7  2  0
  7  8  1  0
  8  9  2  0
  9 10  1  0
 10 11  1  0
 10 12  2  0
 12 13  1  0
 14 13  1  6
 14 15  1  0
 15 16  1  1
 15 17  1  0
 17 18  2  0
 19 18  1  1
 19 20  1  0
 20 21  1  1
 20  2  1  0
 14  5  1  0
 19  5  1  0
 12  6  1  0
 21  7  1  0
M  CHG  1   2   1
M  END
> <Identifier>
MORPHINE

> <hERG>
0

$$$$

     RDKit          2D

 26 29  0  0  0  0  0  0  0  0999 V2000
    2.3542   -4.0070    0.0000 C   0  0  0  0  0  0  0  0  0  0  0  0
    1.3957   -2.8531    0.0000 C   0  0  0  0  0  0  0  0  0  0  0  0
   -0.0828   -3.1063    0.0000 C   0  0  0  0  0  0  0  0  0  0  0  0
   -1.0412   -1.9524    0.0000 O   0  0  0  0  0  0  0  0  0  0  0  0
   -0.5212   -0.5454    0.0000 C   0  0  0  0  0  0  0  0  0  0  0  0
   -1.4797    0.6084    0.0000 C   0  0  0  0  0  0  0  0  0  0  0  0
   -2.9581    0.3553    0.0000 N   0  0  0  0  0  0  0  0  0  0  0  0
   -3.9166    1.5091    0.0000 C   0  0  0  0  0  0  0  0  0  0  0  0
   -5.3951    1.2560    0.0000 C   0  0  0  0  0  0  0  0  0  0  0  0
   -5.9151   -0.1510    0.0000 N   0  0  0  0  0  4  0  0  0  0  0  0
   -7.3936   -0.4041    0.0000 C   0  0  0  0  0  0  0  0  0  0  0  0
   -4.9567   -1.3048    0.0000 C   0  0  0  0  0  0  0  0  0  0  0  0
   -3.4782   -1.0517    0.0000 C   0  0  0  0  0  0  0  0  0  0  0  0
   -0.9596    2.0154    0.0000 C   0  0  0  0  0  0  0  0  0  0  0  0
   -1.9181    3.1692    0.0000 F   0  0  0  0  0  0  0  0  0  0  0  0
    0.5189    2.2685    0.0000 C   0  0  0  0  0  0  0  0  0  0  0  0
    1.4773    1.1146    0.0000 C   0  0  0  0  0  0  0  0  0  0  0  0
    2.9558    1.3678    0.0000 C   0  0  0  0  0  0  0  0  0  0  0  0
    3.4758    2.7747    0.0000 O   0  0  0  0  0  0  0  0  0  0  0  0
    3.9143    0.2139    0.0000 C   0  0  0  0  0  0  0  0  0  0  0  0
    5.3928    0.4670    0.0000 C   0  0  0  0  0  0  0  0  0  0  0  0
    5.9128    1.8740    0.0000 O   0  0  0  0  0  0  0  0  0  0  0  0
    6.3512   -0.6868    0.0000 O   0  0  0  0  0  1  0  0  0  0  0  0
    3.3942   -1.1930    0.0000 C   0  0  0  0  0  0  0  0  0  0  0  0
    1.9157   -1.4462    0.0000 N   0  0  0  0  0  0  0  0  0  0  0  0
    0.9573   -0.2923    0.0000 C   0  0  0  0  0  0  0  0  0  0  0  0
  2  1  1  6
  2  3  1  0
  3  4  1  0
  4  5  1  0
  5  6  1  0
  6  7  1  0
  7  8  1  0
  8  9  1  0
  9 10  1  0
 10 11  1  0
 10 12  1  0
 12 13  1  0
  6 14  2  0
 14 15  1  0
 14 16  1  0
 16 17  2  0
 17 18  1  0
 18 19  2  0
 18 20  1  0
 20 21  1  0
 21 22  2  0
 21 23  1  0
 20 24  2  0
 24 25  1  0
 25 26  1  0
 25  2  1  0
 26  5  2  0
 13  7  1  0
 26 17  1  0
M  CHG  2  10   1  23  -1
M  END
> <Identifier>
OFLOXACIN

> <hERG>
0

$$$$

     RDKit          2D

 22 24  0  0  0  0  0  0  0  0999 V2000
    4.1106    3.8440    0.0000 C   0  0  0  0  0  0  0  0  0  0  0  0
    2.8262    3.0693    0.0000 C   0  0  0  0  0  0  0  0  0  0  0  0
    2.8548    1.5696    0.0000 C   0  0  0  0  0  0  0  0  0  0  0  0
    4.1679    0.8446    0.0000 C   0  0  0  0  0  0  0  0  0  0  0  0
    5.4524    1.6192    0.0000 C   0  0  0  0  0  0  0  0  0  0  0  0
    1.5703    0.7950    0.0000 C   0  0  0  0  0  0  0  0  0  0  0  0
    0.1886    1.3788    0.0000 C   0  0  0  0  0  0  0  0  0  0  0  0
   -0.7936    0.2451    0.0000 N   0  0  0  0  0  0  0  0  0  0  0  0
   -2.2881    0.3734    0.0000 C   0  0  0  0  0  0  0  0  0  0  0  0
   -2.9243    1.7318    0.0000 C   0  0  0  0  0  0  0  0  0  0  0  0
   -4.4188    1.8601    0.0000 C   0  0  0  0  0  0  0  0  0  0  0  0
   -5.2772    0.6299    0.0000 C   0  0  0  0  0  0  0  0  0  0  0  0
   -6.7717    0.7582    0.0000 F   0  0  0  0  0  0  0  0  0  0  0  0
   -4.6410   -0.7285    0.0000 C   0  0  0  0  0  0  0  0  0  0  0  0
   -3.1465   -0.8568    0.0000 C   0  0  0  0  0  0  0  0  0  0  0  0
   -0.0190   -1.0394    0.0000 C   0  0  0  0  0  0  0  0  0  0  0  0
   -0.4552   -2.4746    0.0000 C   0  0  0  0  0  0  0  0  0  0  0  0
    0.5696   -3.5699    0.0000 C   0  0  0  0  0  0  0  0  0  0  0  0
    2.0306   -3.2301    0.0000 C   0  0  0  0  0  0  0  0  0  0  0  0
    3.0554   -4.3254    0.0000 Cl  0  0  0  0  0  0  0  0  0  0  0  0
    2.4668   -1.7949    0.0000 C   0  0  0  0  0  0  0  0  0  0  0  0
    1.4420   -0.6996    0.0000 C   0  0  0  0  0  0  0  0  0  0  0  0
  1  2  1  0
  2  3  1  0
  3  4  1  0
  4  5  1  0
  3  6  1  0
  6  7  2  0
  7  8  1  0
  8  9  1  0
  9 10  2  0
 10 11  1  0
 11 12  2  0
 12 13  1  0
 12 14  1  0
 14 15  2  0
  8 16  1  0
 16 17  2  0
 17 18  1  0
 18 19  2  0
 19 20  1  0
 19 21  1  0
 21 22  2  0
 22  6  1  0
 15  9  1  0
 22 16  1  0
M  END
> <Identifier>
SERTINDOLE17

> <hERG>
0

$$$$

     RDKit          2D

 26 31  0  0  0  0  0  0  0  0999 V2000
   -1.1720   -3.1630    0.0000 C   0  0  0  0  0  0  0  0  0  0  0  0
   -0.9040   -1.0949    0.0000 N   0  0  0  0  0  4  0  0  0  0  0  0
   -2.7531   -2.0590    0.0000 C   0  0  0  0  0  0  0  0  0  0  0  0
   -3.8151   -0.9997    0.0000 C   0  0  0  0  0  0  0  0  0  0  0  0
   -5.2645   -0.6133    0.0000 C   0  0  0  0  0  0  0  0  0  0  0  0
   -4.2052    0.4487    0.0000 C   0  0  0  0  0  0  0  0  0  0  0  0
   -0.1069   -1.1636    0.0000 C   0  0  0  0  0  0  0  0  0  0  0  0
    0.3511   -0.5077    0.0000 C   0  0  0  0  0  0  0  0  0  0  0  0
    0.4128    0.7908    0.0000 C   0  0  0  0  0  0  0  0  0  0  0  0
    1.3171   -0.4060    0.0000 C   0  0  0  0  0  0  0  0  0  0  0  0
    1.0328   -1.8788    0.0000 C   0  0  0  0  0  0  0  0  0  0  0  0
    2.1661   -2.8614    0.0000 C   0  0  0  0  0  0  0  0  0  0  0  0
    3.5838   -2.3712    0.0000 C   0  0  0  0  0  0  0  0  0  0  0  0
    3.8681   -0.8984    0.0000 C   0  0  0  0  0  0  0  0  0  0  0  0
    5.2857   -0.4082    0.0000 O   0  0  0  0  0  0  0  0  0  0  0  0
    2.7347    0.0842    0.0000 C   0  0  0  0  0  0  0  0  0  0  0  0
    2.7066    1.5840    0.0000 O   0  0  0  0  0  0  0  0  0  0  0  0
    1.2716    2.0207    0.0000 C   0  0  0  0  0  0  0  0  0  0  0  0
    0.6359    3.3793    0.0000 C   0  0  0  0  0  0  0  0  0  0  0  0
    1.4947    4.6092    0.0000 O   0  0  0  0  0  0  0  0  0  0  0  0
   -0.8586    3.5081    0.0000 C   0  0  0  0  0  0  0  0  0  0  0  0
   -1.7173    2.2783    0.0000 C   0  0  0  0  0  0  0  0  0  0  0  0
   -1.0816    0.9196    0.0000 C   0  0  0  0  0  0  0  0  0  0  0  0
   -2.5761    1.0484    0.0000 O   0  0  0  0  0  0  0  0  0  0  0  0
   -1.9404   -0.3102    0.0000 C   0  0  0  0  0  0  0  0  0  0  0  0
   -0.4661   -1.9360    0.0000 C   0  0  0  0  0  0  0  0  0  0  0  0
  2  1  1  6
  2  3  1  0
  3  4  1  0
  4  5  1  0
  5  6  1  0
  2  7  1  0
  7  8  1  0
  9  8  1  1
  9 10  1  0
 10 11  2  0
 11 12  1  0
 12 13  2  0
 13 14  1  0
 14 15  1  0
 14 16  2  0
 16 17  1  0
 18 17  1  6
 18 19  1  0
 19 20  2  0
 19 21  1  0
 21 22  1  0
 22 23  1  0
 23 24  1  1
 23 25  1  0
 25 26  1  6
 25  2  1  0
  6  4  1  0
 18  9  1  0
 23  9  1  0
 16 10  1  0
 26 11  1  0
M  CHG  1   2   1
M  END
> <Identifier>
METHYLNALTREXONE

> <hERG>
0

$$$$

     RDKit          2D

 21 23  0  0  0  0  0  0  0  0999 V2000
    4.0612    4.2404    0.0000 C   0  0  0  0  0  0  0  0  0  0  0  0
    2.8390    3.3708    0.0000 C   0  0  0  0  0  0  0  0  0  0  0  0
    2.9810    1.8775    0.0000 C   0  0  0  0  0  0  0  0  0  0  0  0
    4.3452    1.2538    0.0000 O   0  0  0  0  0  0  0  0  0  0  0  0
    1.7588    1.0079    0.0000 C   0  0  0  0  0  0  0  0  0  0  0  0
    0.3368    1.4856    0.0000 C   0  0  0  0  0  0  0  0  0  0  0  0
   -0.5568    0.2809    0.0000 N   0  0  0  0  0  0  0  0  0  0  0  0
   -2.0568    0.2958    0.0000 C   0  0  0  0  0  0  0  0  0  0  0  0
   -2.7938    1.6022    0.0000 C   0  0  0  0  0  0  0  0  0  0  0  0
   -4.2938    1.6171    0.0000 C   0  0  0  0  0  0  0  0  0  0  0  0
   -5.0566    0.3256    0.0000 C   0  0  0  0  0  0  0  0  0  0  0  0
   -6.5565    0.3405    0.0000 F   0  0  0  0  0  0  0  0  0  0  0  0
   -4.3196   -0.9808    0.0000 C   0  0  0  0  0  0  0  0  0  0  0  0
   -2.8196   -0.9957    0.0000 C   0  0  0  0  0  0  0  0  0  0  0  0
    0.3127   -0.9413    0.0000 C   0  0  0  0  0  0  0  0  0  0  0  0
   -0.0137   -2.4054    0.0000 C   0  0  0  0  0  0  0  0  0  0  0  0
    1.0910   -3.4201    0.0000 C   0  0  0  0  0  0  0  0  0  0  0  0
    2.5221   -2.9707    0.0000 C   0  0  0  0  0  0  0  0  0  0  0  0
    3.6268   -3.9855    0.0000 Cl  0  0  0  0  0  0  0  0  0  0  0  0
    2.8486   -1.5067    0.0000 C   0  0  0  0  0  0  0  0  0  0  0  0
    1.7439   -0.4920    0.0000 C   0  0  0  0  0  0  0  0  0  0  0  0
  1  2  1  0
  2  3  1  0
  3  4  2  0
  3  5  1  0
  5  6  2  0
  6  7  1  0
  7  8  1  0
  8  9  2  0
  9 10  1  0
 10 11  2  0
 11 12  1  0
 11 13  1  0
 13 14  2  0
  7 15  1  0
 15 16  2  0
 16 17  1  0
 17 18  2  0
 18 19  1  0
 18 20  1  0
 20 21  2  0
 21  5  1  0
 14  8  1  0
 21 15  1  0
M  END
> <Identifier>
SERTINDOLE19

> <hERG>
0

$$$$

     RDKit          2D

 21 23  0  0  0  0  0  0  0  0999 V2000
    4.0612    4.2404    0.0000 C   0  0  0  0  0  0  0  0  0  0  0  0
    2.8390    3.3708    0.0000 C   0  0  0  0  0  0  0  0  0  0  0  0
    2.9810    1.8775    0.0000 C   0  0  0  0  0  0  0  0  0  0  0  0
    4.3452    1.2538    0.0000 O   0  0  0  0  0  0  0  0  0  0  0  0
    1.7588    1.0079    0.0000 C   0  0  0  0  0  0  0  0  0  0  0  0
    0.3368    1.4856    0.0000 C   0  0  0  0  0  0  0  0  0  0  0  0
   -0.5568    0.2809    0.0000 N   0  0  0  0  0  0  0  0  0  0  0  0
   -2.0568    0.2958    0.0000 C   0  0  0  0  0  0  0  0  0  0  0  0
   -2.7938    1.6022    0.0000 C   0  0  0  0  0  0  0  0  0  0  0  0
   -4.2938    1.6171    0.0000 C   0  0  0  0  0  0  0  0  0  0  0  0
   -5.0566    0.3256    0.0000 C   0  0  0  0  0  0  0  0  0  0  0  0
   -6.5565    0.3405    0.0000 F   0  0  0  0  0  0  0  0  0  0  0  0
   -4.3196   -0.9808    0.0000 C   0  0  0  0  0  0  0  0  0  0  0  0
   -2.8196   -0.9957    0.0000 C   0  0  0  0  0  0  0  0  0  0  0  0
    0.3127   -0.9413    0.0000 C   0  0  0  0  0  0  0  0  0  0  0  0
   -0.0137   -2.4054    0.0000 C   0  0  0  0  0  0  0  0  0  0  0  0
    1.0910   -3.4201    0.0000 C   0  0  0  0  0  0  0  0  0  0  0  0
    2.5221   -2.9707    0.0000 C   0  0  0  0  0  0  0  0  0  0  0  0
    3.6268   -3.9855    0.0000 Cl  0  0  0  0  0  0  0  0  0  0  0  0
    2.8486   -1.5067    0.0000 C   0  0  0  0  0  0  0  0  0  0  0  0
    1.7439   -0.4920    0.0000 C   0  0  0  0  0  0  0  0  0  0  0  0
  1  2  1  0
  2  3  1  0
  3  4  1  6
  3  5  1  0
  5  6  2  0
  6  7  1  0
  7  8  1  0
  8  9  2  0
  9 10  1  0
 10 11  2  0
 11 12  1  0
 11 13  1  0
 13 14  2  0
  7 15  1  0
 15 16  2  0
 16 17  1  0
 17 18  2  0
 18 19  1  0
 18 20  1  0
 20 21  2  0
 21  5  1  0
 14  8  1  0
 21 15  1  0
M  END
> <Identifier>
SERTINDOLE21

> <hERG>
0

$$$$

     RDKit          2D

 25 27  0  0  0  0  0  0  0  0999 V2000
   -2.6058   -4.0684    0.0000 C   0  0  0  0  0  0  0  0  0  0  0  0
   -1.5676   -2.9858    0.0000 C   0  0  0  0  0  0  0  0  0  0  0  0
   -1.9860   -1.5454    0.0000 N   0  0  0  0  0  0  0  0  0  0  0  0
   -3.4427   -1.1875    0.0000 C   0  0  0  0  0  0  0  0  0  0  0  0
   -3.8611    0.2529    0.0000 C   0  0  0  0  0  0  0  0  0  0  0  0
   -5.3178    0.6108    0.0000 C   0  0  0  0  0  0  0  0  0  0  0  0
   -6.3561   -0.4718    0.0000 O   0  0  0  0  0  0  0  0  0  0  0  0
   -5.7363    2.0512    0.0000 O   0  0  0  0  0  1  0  0  0  0  0  0
   -2.8229    1.3355    0.0000 C   0  0  0  0  0  0  0  0  0  0  0  0
   -3.2413    2.7760    0.0000 O   0  0  0  0  0  0  0  0  0  0  0  0
   -1.3662    0.9777    0.0000 C   0  0  0  0  0  0  0  0  0  0  0  0
   -0.3280    2.0603    0.0000 C   0  0  0  0  0  0  0  0  0  0  0  0
    1.1287    1.7025    0.0000 C   0  0  0  0  0  0  0  0  0  0  0  0
    2.1670    2.7851    0.0000 F   0  0  0  0  0  0  0  0  0  0  0  0
    1.5472    0.2620    0.0000 C   0  0  0  0  0  0  0  0  0  0  0  0
    3.0039   -0.0958    0.0000 N   0  0  0  0  0  0  0  0  0  0  0  0
    3.4223   -1.5363    0.0000 C   0  0  0  0  0  0  0  0  0  0  0  0
    4.8790   -1.8941    0.0000 C   0  0  0  0  0  0  0  0  0  0  0  0
    5.9172   -0.8115    0.0000 N   0  0  0  0  0  4  0  0  0  0  0  0
    5.4988    0.6289    0.0000 C   0  0  0  0  0  0  0  0  0  0  0  0
    6.5371    1.7115    0.0000 C   0  0  0  0  0  0  0  0  0  0  0  0
    4.0421    0.9868    0.0000 C   0  0  0  0  0  0  0  0  0  0  0  0
    0.5089   -0.8206    0.0000 C   0  0  0  0  0  0  0  0  0  0  0  0
    0.9274   -2.2611    0.0000 F   0  0  0  0  0  0  0  0  0  0  0  0
   -0.9478   -0.4628    0.0000 C   0  0  0  0  0  0  0  0  0  0  0  0
  1  2  1  0
  2  3  1  0
  3  4  1  0
  4  5  2  0
  5  6  1  0
  6  7  2  0
  6  8  1  0
  5  9  1  0
  9 10  2  0
  9 11  1  0
 11 12  2  0
 12 13  1  0
 13 14  1  0
 13 15  2  0
 15 16  1  0
 16 17  1  0
 17 18  1  0
 18 19  1  0
 19 20  1  0
 20 21  1  1
 20 22  1  0
 15 23  1  0
 23 24  1  0
 23 25  2  0
 25  3  1  0
 25 11  1  0
 22 16  1  0
M  CHG  2   8  -1  19   1
M  END
> <Identifier>
LOMEFLOXACIN

> <hERG>
0

$$$$

     RDKit          2D

 18 20  0  0  0  0  0  0  0  0999 V2000
   -1.2990   -3.0104    0.0000 N   0  0  0  0  0  0  0  0  0  0  0  0
    0.0000   -2.2604    0.0000 C   0  0  0  0  0  0  0  0  0  0  0  0
    1.2990   -3.0104    0.0000 O   0  0  0  0  0  0  0  0  0  0  0  0
   -0.0000   -0.7604    0.0000 N   0  0  0  0  0  0  0  0  0  0  0  0
    1.3515   -0.1096    0.0000 C   0  0  0  0  0  0  0  0  0  0  0  0
    2.4510   -1.1298    0.0000 C   0  0  0  0  0  0  0  0  0  0  0  0
    3.8844   -0.6877    0.0000 C   0  0  0  0  0  0  0  0  0  0  0  0
    4.2182    0.7747    0.0000 C   0  0  0  0  0  0  0  0  0  0  0  0
    3.1186    1.7949    0.0000 C   0  0  0  0  0  0  0  0  0  0  0  0
    1.6852    1.3528    0.0000 C   0  0  0  0  0  0  0  0  0  0  0  0
    0.7500    2.5256    0.0000 C   0  0  0  0  0  0  0  0  0  0  0  0
   -0.7500    2.5256    0.0000 C   0  0  0  0  0  0  0  0  0  0  0  0
   -1.6852    1.3528    0.0000 C   0  0  0  0  0  0  0  0  0  0  0  0
   -3.1186    1.7949    0.0000 C   0  0  0  0  0  0  0  0  0  0  0  0
   -4.2182    0.7747    0.0000 C   0  0  0  0  0  0  0  0  0  0  0  0
   -3.8844   -0.6877    0.0000 C   0  0  0  0  0  0  0  0  0  0  0  0
   -2.4510   -1.1298    0.0000 C   0  0  0  0  0  0  0  0  0  0  0  0
   -1.3515   -0.1096    0.0000 C   0  0  0  0  0  0  0  0  0  0  0  0
  1  2  1  0
  2  3  2  0
  2  4  1  0
  4  5  1  0
  5  6  2  0
  6  7  1  0
  7  8  2  0
  8  9  1  0
  9 10  2  0
 10 11  1  0
 11 12  2  0
 12 13  1  0
 13 14  2  0
 14 15  1  0
 15 16  2  0
 16 17  1  0
 17 18  2  0
 18  4  1  0
 10  5  1  0
 18 13  1  0
M  END
> <Identifier>
CARBAMAZEPINE

> <hERG>
0

$$$$

     RDKit          2D

 17 18  0  0  0  0  0  0  0  0999 V2000
   -0.7422   -2.9241    0.0000 C   0  0  0  0  0  0  0  0  0  0  0  0
    0.1951   -1.7530    0.0000 C   0  0  0  0  0  0  0  0  0  0  0  0
   -0.3505   -0.3557    0.0000 C   0  0  0  0  0  0  0  0  0  0  0  0
    1.1203   -0.0611    0.0000 C   0  0  0  0  0  0  0  0  0  0  0  0
    2.1108   -1.1875    0.0000 C   0  0  0  0  0  0  0  0  0  0  0  0
    3.5816   -0.8929    0.0000 C   0  0  0  0  0  0  0  0  0  0  0  0
    4.0618    0.5282    0.0000 C   0  0  0  0  0  0  0  0  0  0  0  0
    3.0713    1.6546    0.0000 C   0  0  0  0  0  0  0  0  0  0  0  0
    1.6005    1.3600    0.0000 C   0  0  0  0  0  0  0  0  0  0  0  0
   -0.3853    1.1439    0.0000 C   0  0  0  0  0  0  0  0  0  0  0  0
    0.8960    1.9238    0.0000 O   0  0  0  0  0  0  0  0  0  0  0  0
   -1.7013    1.8636    0.0000 N   0  0  0  0  0  0  0  0  0  0  0  0
   -2.9826    1.0837    0.0000 C   0  0  0  0  0  0  0  0  0  0  0  0
   -4.2987    1.8034    0.0000 O   0  0  0  0  0  0  0  0  0  0  0  0
   -2.9479   -0.4159    0.0000 N   0  0  0  0  0  0  0  0  0  0  0  0
   -1.6318   -1.1356    0.0000 C   0  0  0  0  0  0  0  0  0  0  0  0
   -1.5970   -2.6352    0.0000 O   0  0  0  0  0  0  0  0  0  0  0  0
  1  2  1  0
  2  3  1  0
  3  4  1  0
  4  5  2  0
  5  6  1  0
  6  7  2  0
  7  8  1  0
  8  9  2  0
  3 10  1  0
 10 11  2  0
 10 12  1  0
 12 13  1  0
 13 14  2  0
 13 15  1  0
 15 16  1  0
 16 17  2  0
 16  3  1  0
  9  4  1  0
M  END
> <Identifier>
PHENOBARBITAL

> <hERG>
0

$$$$

     RDKit          2D

 19 21  0  0  0  0  0  0  0  0999 V2000
    2.3885    4.2963    0.0000 C   0  0  0  0  0  0  0  0  0  0  0  0
    2.8579    2.8717    0.0000 C   0  0  0  0  0  0  0  0  0  0  0  0
    1.8589    1.7528    0.0000 C   0  0  0  0  0  0  0  0  0  0  0  0
    0.3665    1.9034    0.0000 C   0  0  0  0  0  0  0  0  0  0  0  0
   -0.2379    0.5305    0.0000 N   0  0  0  0  0  0  0  0  0  0  0  0
   -1.7038    0.2126    0.0000 C   0  0  0  0  0  0  0  0  0  0  0  0
   -2.7122    1.3231    0.0000 C   0  0  0  0  0  0  0  0  0  0  0  0
   -4.1781    1.0051    0.0000 C   0  0  0  0  0  0  0  0  0  0  0  0
   -4.6356   -0.4234    0.0000 C   0  0  0  0  0  0  0  0  0  0  0  0
   -6.1016   -0.7414    0.0000 F   0  0  0  0  0  0  0  0  0  0  0  0
   -3.6273   -1.5339    0.0000 C   0  0  0  0  0  0  0  0  0  0  0  0
   -2.1614   -1.2159    0.0000 C   0  0  0  0  0  0  0  0  0  0  0  0
    0.8810   -0.4685    0.0000 C   0  0  0  0  0  0  0  0  0  0  0  0
    0.8872   -1.9685    0.0000 C   0  0  0  0  0  0  0  0  0  0  0  0
    2.1894   -2.7131    0.0000 C   0  0  0  0  0  0  0  0  0  0  0  0
    3.4853   -1.9577    0.0000 C   0  0  0  0  0  0  0  0  0  0  0  0
    4.7874   -2.7023    0.0000 Cl  0  0  0  0  0  0  0  0  0  0  0  0
    3.4790   -0.4577    0.0000 C   0  0  0  0  0  0  0  0  0  0  0  0
    2.1769    0.2869    0.0000 C   0  0  0  0  0  0  0  0  0  0  0  0
  1  2  1  0
  2  3  1  0
  3  4  2  0
  4  5  1  0
  5  6  1  0
  6  7  2  0
  7  8  1  0
  8  9  2  0
  9 10  1  0
  9 11  1  0
 11 12  2  0
  5 13  1  0
 13 14  2  0
 14 15  1  0
 15 16  2  0
 16 17  1  0
 16 18  1  0
 18 19  2  0
 19  3  1  0
 12  6  1  0
 19 13  1  0
M  END
> <Identifier>
SERTINDOLE22

> <hERG>
0

$$$$

     RDKit          2D

  7  7  0  0  0  0  0  0  0  0999 V2000
    2.5714    0.0000    0.0000 N   0  0  0  0  0  0  0  0  0  0  0  0
    1.0714   -0.0000    0.0000 C   0  0  0  0  0  0  0  0  0  0  0  0
    0.3214   -1.2990    0.0000 C   0  0  0  0  0  0  0  0  0  0  0  0
   -1.1786   -1.2990    0.0000 C   0  0  0  0  0  0  0  0  0  0  0  0
   -1.9286    0.0000    0.0000 N   0  0  0  0  0  0  0  0  0  0  0  0
   -1.1786    1.2990    0.0000 C   0  0  0  0  0  0  0  0  0  0  0  0
    0.3214    1.2990    0.0000 C   0  0  0  0  0  0  0  0  0  0  0  0
  1  2  1  0
  2  3  2  0
  3  4  1  0
  4  5  2  0
  5  6  1  0
  6  7  2  0
  7  2  1  0
M  END
> <Identifier>
4-AMINOPYRIDINE

> <hERG>
0

$$$$

     RDKit          2D

 20 22  0  0  0  0  0  0  0  0999 V2000
    2.5058    3.9764    0.0000 C   0  0  0  0  0  0  0  0  0  0  0  0
    2.8572    2.5181    0.0000 C   0  0  0  0  0  0  0  0  0  0  0  0
    4.2957    2.0933    0.0000 O   0  0  0  0  0  0  0  0  0  0  0  0
    1.7699    1.4847    0.0000 C   0  0  0  0  0  0  0  0  0  0  0  0
    0.2948    1.7569    0.0000 C   0  0  0  0  0  0  0  0  0  0  0  0
   -0.4198    0.4380    0.0000 N   0  0  0  0  0  0  0  0  0  0  0  0
   -1.9068    0.2410    0.0000 C   0  0  0  0  0  0  0  0  0  0  0  0
   -2.8209    1.4303    0.0000 C   0  0  0  0  0  0  0  0  0  0  0  0
   -4.3080    1.2333    0.0000 C   0  0  0  0  0  0  0  0  0  0  0  0
   -4.8808   -0.1530    0.0000 C   0  0  0  0  0  0  0  0  0  0  0  0
   -6.3678   -0.3500    0.0000 F   0  0  0  0  0  0  0  0  0  0  0  0
   -3.9667   -1.3423    0.0000 C   0  0  0  0  0  0  0  0  0  0  0  0
   -2.4797   -1.1453    0.0000 C   0  0  0  0  0  0  0  0  0  0  0  0
    0.6136   -0.6492    0.0000 C   0  0  0  0  0  0  0  0  0  0  0  0
    0.4971   -2.1446    0.0000 C   0  0  0  0  0  0  0  0  0  0  0  0
    1.7340   -2.9932    0.0000 C   0  0  0  0  0  0  0  0  0  0  0  0
    3.0874   -2.3464    0.0000 C   0  0  0  0  0  0  0  0  0  0  0  0
    4.3243   -3.1949    0.0000 Cl  0  0  0  0  0  0  0  0  0  0  0  0
    3.2038   -0.8509    0.0000 C   0  0  0  0  0  0  0  0  0  0  0  0
    1.9670   -0.0023    0.0000 C   0  0  0  0  0  0  0  0  0  0  0  0
  2  1  1  6
  2  3  1  0
  2  4  1  0
  4  5  2  0
  5  6  1  0
  6  7  1  0
  7  8  2  0
  8  9  1  0
  9 10  2  0
 10 11  1  0
 10 12  1  0
 12 13  2  0
  6 14  1  0
 14 15  2  0
 15 16  1  0
 16 17  2  0
 17 18  1  0
 17 19  1  0
 19 20  2  0
 20  4  1  0
 13  7  1  0
 20 14  1  0
M  END
> <Identifier>
SERTINDOLE18

> <hERG>
0

$$$$

     RDKit          2D

 14 15  0  0  0  0  0  0  0  0999 V2000
   -4.2186   -0.1439    0.0000 C   0  0  0  0  0  0  0  0  0  0  0  0
   -2.7895    0.3118    0.0000 O   0  0  0  0  0  0  0  0  0  0  0  0
   -1.6803   -0.6980    0.0000 C   0  0  0  0  0  0  0  0  0  0  0  0
   -2.0002   -2.1635    0.0000 O   0  0  0  0  0  0  0  0  0  0  0  0
   -0.2512   -0.2423    0.0000 C   0  0  0  0  0  0  0  0  0  0  0  0
    0.0687    1.2232    0.0000 C   0  0  0  0  0  0  0  0  0  0  0  0
   -1.0405    2.2329    0.0000 O   0  0  0  0  0  0  0  0  0  0  0  0
    1.4978    1.6789    0.0000 C   0  0  0  0  0  0  0  0  0  0  0  0
    2.4919    0.5426    0.0000 C   0  0  0  0  0  0  0  0  0  0  0  0
    3.2348   -0.7605    0.0000 C   0  0  0  0  0  0  0  0  0  0  0  0
    2.2250   -1.8697    0.0000 C   0  0  0  0  0  0  0  0  0  0  0  0
    0.8580   -1.2521    0.0000 C   0  0  0  0  0  0  0  0  0  0  0  0
    1.0230    0.2388    0.0000 N   0  0  0  0  0  4  0  0  0  0  0  0
    0.5809    0.9021    0.0000 C   0  0  0  0  0  0  0  0  0  0  0  0
  1  2  1  0
  2  3  1  0
  3  4  2  0
  5  3  1  1
  5  6  1  0
  6  7  1  1
  6  8  1  0
  9  8  1  1
  9 10  1  0
 10 11  1  0
 12 11  1  1
 12 13  1  0
 13 14  1  0
 12  5  1  0
 13  9  1  0
M  CHG  1  13   1
M  END
> <Identifier>
ECGONINE_METHYL_ESTER

> <hERG>
0

$$$$

     RDKit          2D

 17 17  0  0  0  0  0  0  0  0999 V2000
    5.1706    1.8759    0.0000 C   0  0  0  0  0  0  0  0  0  0  0  0
    3.8405    1.1824    0.0000 N   0  0  0  0  0  0  0  0  0  0  0  0
    3.7761   -0.3162    0.0000 C   0  0  0  0  0  0  0  0  0  0  0  0
    2.4460   -1.0097    0.0000 N   0  0  0  0  0  0  0  0  0  0  0  0
    1.1804   -0.2046    0.0000 C   0  0  0  0  0  0  0  0  0  0  0  0
   -0.1497   -0.8981    0.0000 C   0  0  0  0  0  0  0  0  0  0  0  0
   -1.4153   -0.0930    0.0000 S   0  0  0  0  0  0  0  0  0  0  0  0
   -2.7453   -0.7864    0.0000 C   0  0  0  0  0  0  0  0  0  0  0  0
   -4.0110    0.0187    0.0000 C   0  0  0  0  0  0  0  0  0  0  0  0
   -4.1035    1.5158    0.0000 N   0  0  0  0  0  0  0  0  0  0  0  0
   -5.5560    1.8905    0.0000 C   0  0  0  0  0  0  0  0  0  0  0  0
   -6.3611    0.6249    0.0000 N   0  0  0  0  0  0  0  0  0  0  0  0
   -5.4062   -0.5320    0.0000 C   0  0  0  0  0  0  0  0  0  0  0  0
   -5.7809   -1.9844    0.0000 C   0  0  0  0  0  0  0  0  0  0  0  0
    5.0417   -1.1214    0.0000 N   0  0  0  0  0  4  0  0  0  0  0  0
    6.3718   -0.4279    0.0000 C   0  0  0  0  0  0  0  0  0  0  0  0
    7.7018    0.2656    0.0000 N   0  0  0  0  0  0  0  0  0  0  0  0
  1  2  1  0
  2  3  1  0
  3  4  1  0
  4  5  1  0
  5  6  1  0
  6  7  1  0
  7  8  1  0
  8  9  1  0
  9 10  1  0
 10 11  1  0
 11 12  2  0
 12 13  1  0
 13 14  1  0
  3 15  2  0
 15 16  1  0
 16 17  3  0
 13  9  2  0
M  CHG  1  15   1
M  END
> <Identifier>
CIMETIDINE

> <hERG>
0

$$$$

     RDKit          2D

 17 18  0  0  0  0  0  0  0  0999 V2000
   -4.3588   -2.6033    0.0000 C   0  0  0  0  0  0  0  0  0  0  0  0
   -3.8939   -1.1772    0.0000 C   0  0  0  0  0  0  0  0  0  0  0  0
   -2.4669   -0.7150    0.0000 C   0  0  0  0  0  0  0  0  0  0  0  0
   -2.4654    0.7850    0.0000 C   0  0  0  0  0  0  0  0  0  0  0  0
   -1.2511    1.6655    0.0000 N   0  0  0  0  0  0  0  0  0  0  0  0
    0.1187    1.0541    0.0000 S   0  0  0  0  0  0  0  0  0  0  0  0
    0.7301    2.4238    0.0000 O   0  0  0  0  0  0  0  0  0  0  0  0
   -0.4928   -0.3157    0.0000 O   0  0  0  0  0  0  0  0  0  0  0  0
    1.4884    0.4426    0.0000 C   0  0  0  0  0  0  0  0  0  0  0  0
    1.6437   -1.0493    0.0000 C   0  0  0  0  0  0  0  0  0  0  0  0
    3.0135   -1.6607    0.0000 C   0  0  0  0  0  0  0  0  0  0  0  0
    4.2278   -0.7802    0.0000 C   0  0  0  0  0  0  0  0  0  0  0  0
    5.5976   -1.3916    0.0000 N   0  0  0  0  0  0  0  0  0  0  0  0
    4.0725    0.7117    0.0000 C   0  0  0  0  0  0  0  0  0  0  0  0
    2.7028    1.3231    0.0000 C   0  0  0  0  0  0  0  0  0  0  0  0
   -3.8916    1.2499    0.0000 N   0  0  0  0  0  0  0  0  0  0  0  0
   -4.7744    0.0372    0.0000 O   0  0  0  0  0  0  0  0  0  0  0  0
  1  2  1  0
  2  3  2  0
  3  4  1  0
  4  5  1  0
  5  6  1  0
  6  7  2  0
  6  8  2  0
  6  9  1  0
  9 10  2  0
 10 11  1  0
 11 12  2  0
 12 13  1  0
 12 14  1  0
 14 15  2  0
  4 16  2  0
 16 17  1  0
 17  2  1  0
 15  9  1  0
M  END
> <Identifier>
SULFAMETHOXAZOLE

> <hERG>
0

$$$$

     RDKit          2D

 20 22  0  0  0  0  0  0  0  0999 V2000
    4.0376    4.5299    0.0000 C   0  0  0  0  0  0  0  0  0  0  0  0
    2.8646    3.5950    0.0000 C   0  0  0  0  0  0  0  0  0  0  0  0
    3.0877    2.1117    0.0000 C   0  0  0  0  0  0  0  0  0  0  0  0
    1.9147    1.1768    0.0000 C   0  0  0  0  0  0  0  0  0  0  0  0
    0.4689    1.5762    0.0000 C   0  0  0  0  0  0  0  0  0  0  0  0
   -0.3578    0.3246    0.0000 N   0  0  0  0  0  0  0  0  0  0  0  0
   -1.8563    0.2577    0.0000 C   0  0  0  0  0  0  0  0  0  0  0  0
   -2.6635    1.5220    0.0000 C   0  0  0  0  0  0  0  0  0  0  0  0
   -4.1620    1.4551    0.0000 C   0  0  0  0  0  0  0  0  0  0  0  0
   -4.8533    0.1239    0.0000 C   0  0  0  0  0  0  0  0  0  0  0  0
   -6.3518    0.0570    0.0000 F   0  0  0  0  0  0  0  0  0  0  0  0
   -4.0461   -1.1404    0.0000 C   0  0  0  0  0  0  0  0  0  0  0  0
   -2.5476   -1.0735    0.0000 C   0  0  0  0  0  0  0  0  0  0  0  0
    0.5771   -0.8484    0.0000 C   0  0  0  0  0  0  0  0  0  0  0  0
    0.3310   -2.3281    0.0000 C   0  0  0  0  0  0  0  0  0  0  0  0
    1.4893   -3.2811    0.0000 C   0  0  0  0  0  0  0  0  0  0  0  0
    2.8938   -2.7544    0.0000 C   0  0  0  0  0  0  0  0  0  0  0  0
    4.0522   -3.7074    0.0000 Cl  0  0  0  0  0  0  0  0  0  0  0  0
    3.1400   -1.2747    0.0000 C   0  0  0  0  0  0  0  0  0  0  0  0
    1.9816   -0.3218    0.0000 C   0  0  0  0  0  0  0  0  0  0  0  0
  1  2  1  0
  2  3  1  0
  3  4  1  0
  4  5  2  0
  5  6  1  0
  6  7  1  0
  7  8  2  0
  8  9  1  0
  9 10  2  0
 10 11  1  0
 10 12  1  0
 12 13  2  0
  6 14  1  0
 14 15  2  0
 15 16  1  0
 16 17  2  0
 17 18  1  0
 17 19  1  0
 19 20  2  0
 20  4  1  0
 13  7  1  0
 20 14  1  0
M  END
> <Identifier>
SERTINDOLE16

> <hERG>
0

$$$$

     RDKit          2D

 33 37  0  0  0  0  0  0  0  0999 V2000
    7.8960    4.5513    0.0000 O   0  0  0  0  0  0  0  0  0  0  0  0
    7.9584    3.0526    0.0000 C   0  0  0  0  0  0  0  0  0  0  0  0
    9.2875    2.3573    0.0000 O   0  0  0  0  0  1  0  0  0  0  0  0
    6.6917    2.2492    0.0000 C   0  0  0  0  0  0  0  0  0  0  0  0
    6.7541    0.7505    0.0000 C   0  0  0  0  0  0  0  0  0  0  0  0
    5.4874   -0.0529    0.0000 C   0  0  0  0  0  0  0  0  0  0  0  0
    4.1583    0.6424    0.0000 C   0  0  0  0  0  0  0  0  0  0  0  0
    2.8916   -0.1610    0.0000 N   0  0  0  0  0  0  0  0  0  0  0  0
    1.4971    0.3916    0.0000 C   0  0  0  0  0  0  0  0  0  0  0  0
    0.5406   -0.7639    0.0000 C   0  0  0  0  0  0  0  0  0  0  0  0
   -0.9564   -0.6693    0.0000 C   0  0  0  0  0  0  0  0  0  0  0  0
   -1.6230    0.6744    0.0000 C   0  0  0  0  0  0  0  0  0  0  0  0
   -3.1200    0.7690    0.0000 C   0  0  0  0  0  0  0  0  0  0  0  0
   -3.9504   -0.4801    0.0000 N   0  0  0  0  0  4  0  0  0  0  0  0
   -5.4474   -0.3855    0.0000 C   0  0  0  0  0  0  0  0  0  0  0  0
   -6.1140    0.9582    0.0000 C   0  0  0  0  0  0  0  0  0  0  0  0
   -7.6110    1.0528    0.0000 N   0  0  0  0  0  0  0  0  0  0  0  0
   -8.5675   -0.1027    0.0000 C   0  0  0  0  0  0  0  0  0  0  0  0
   -9.9620    0.4499    0.0000 C   0  0  0  0  0  0  0  0  0  0  0  0
   -9.8674    1.9469    0.0000 N   0  0  0  0  0  0  0  0  0  0  0  0
   -8.4144    2.3195    0.0000 C   0  0  0  0  0  0  0  0  0  0  0  0
   -7.8619    3.7140    0.0000 O   0  0  0  0  0  0  0  0  0  0  0  0
   -3.2838   -1.8239    0.0000 C   0  0  0  0  0  0  0  0  0  0  0  0
   -1.7868   -1.9185    0.0000 C   0  0  0  0  0  0  0  0  0  0  0  0
    1.3440   -2.0306    0.0000 C   0  0  0  0  0  0  0  0  0  0  0  0
    0.9402   -3.4753    0.0000 C   0  0  0  0  0  0  0  0  0  0  0  0
    1.9894   -4.5473    0.0000 C   0  0  0  0  0  0  0  0  0  0  0  0
    1.5857   -5.9919    0.0000 Cl  0  0  0  0  0  0  0  0  0  0  0  0
    3.4424   -4.1746    0.0000 C   0  0  0  0  0  0  0  0  0  0  0  0
    3.8462   -2.7300    0.0000 C   0  0  0  0  0  0  0  0  0  0  0  0
    2.7970   -1.6580    0.0000 C   0  0  0  0  0  0  0  0  0  0  0  0
    4.0959    2.1411    0.0000 C   0  0  0  0  0  0  0  0  0  0  0  0
    5.3626    2.9445    0.0000 C   0  0  0  0  0  0  0  0  0  0  0  0
  1  2  2  0
  2  3  1  0
  2  4  1  0
  4  5  2  0
  5  6  1  0
  6  7  2  0
  7  8  1  0
  8  9  1  0
  9 10  2  0
 10 11  1  0
 11 12  1  0
 12 13  1  0
 13 14  1  0
 14 15  1  0
 15 16  1  0
 16 17  1  0
 17 18  1  0
 18 19  1  0
 19 20  1  0
 20 21  1  0
 21 22  2  0
 14 23  1  0
 23 24  1  0
 10 25  1  0
 25 26  2  0
 26 27  1  0
 27 28  1  0
 27 29  2  0
 29 30  1  0
 30 31  2  0
  7 32  1  0
 32 33  2  0
 33  4  1  0
 31  8  1  0
 24 11  1  0
 31 25  1  0
 21 17  1  0
M  CHG  2   3  -1  14   1
M  END
> <Identifier>
SERTINDOLE5

> <hERG>
0

$$$$

     RDKit          2D

 25 26  0  0  0  0  0  0  0  0999 V2000
   -9.0933   -2.9100    0.0000 N   0  0  0  0  0  0  0  0  0  0  0  0
   -9.0933   -1.4100    0.0000 C   0  0  0  0  0  0  0  0  0  0  0  0
  -10.3923   -0.6600    0.0000 N   0  0  0  0  0  0  0  0  0  0  0  0
   -7.7942   -0.6600    0.0000 C   0  0  0  0  0  0  0  0  0  0  0  0
   -7.7942    0.8400    0.0000 C   0  0  0  0  0  0  0  0  0  0  0  0
   -6.4952    1.5900    0.0000 C   0  0  0  0  0  0  0  0  0  0  0  0
   -5.1962    0.8400    0.0000 C   0  0  0  0  0  0  0  0  0  0  0  0
   -3.8971    1.5900    0.0000 O   0  0  0  0  0  0  0  0  0  0  0  0
   -2.5981    0.8400    0.0000 C   0  0  0  0  0  0  0  0  0  0  0  0
   -1.2990    1.5900    0.0000 C   0  0  0  0  0  0  0  0  0  0  0  0
   -0.0000    0.8400    0.0000 C   0  0  0  0  0  0  0  0  0  0  0  0
    1.2990    1.5900    0.0000 C   0  0  0  0  0  0  0  0  0  0  0  0
    2.5981    0.8400    0.0000 C   0  0  0  0  0  0  0  0  0  0  0  0
    3.8971    1.5900    0.0000 O   0  0  0  0  0  0  0  0  0  0  0  0
    5.1962    0.8400    0.0000 C   0  0  0  0  0  0  0  0  0  0  0  0
    5.1962   -0.6600    0.0000 C   0  0  0  0  0  0  0  0  0  0  0  0
    6.4952   -1.4100    0.0000 C   0  0  0  0  0  0  0  0  0  0  0  0
    7.7942   -0.6600    0.0000 C   0  0  0  0  0  0  0  0  0  0  0  0
    9.0933   -1.4100    0.0000 C   0  0  0  0  0  0  0  0  0  0  0  0
   10.3923   -0.6600    0.0000 N   0  0  0  0  0  0  0  0  0  0  0  0
    9.0933   -2.9100    0.0000 N   0  0  0  0  0  0  0  0  0  0  0  0
    7.7942    0.8400    0.0000 C   0  0  0  0  0  0  0  0  0  0  0  0
    6.4952    1.5900    0.0000 C   0  0  0  0  0  0  0  0  0  0  0  0
   -5.1962   -0.6600    0.0000 C   0  0  0  0  0  0  0  0  0  0  0  0
   -6.4952   -1.4100    0.0000 C   0  0  0  0  0  0  0  0  0  0  0  0
  1  2  2  0
  2  3  1  0
  2  4  1  0
  4  5  2  0
  5  6  1  0
  6  7  2  0
  7  8  1  0
  8  9  1  0
  9 10  1  0
 10 11  1  0
 11 12  1  0
 12 13  1  0
 13 14  1  0
 14 15  1  0
 15 16  2  0
 16 17  1  0
 17 18  2  0
 18 19  1  0
 19 20  2  0
 19 21  1  0
 18 22  1  0
 22 23  2  0
  7 24  1  0
 24 25  2  0
 25  4  1  0
 23 15  1  0
M  END
> <Identifier>
PENTAMIDINE

> <hERG>
0

$$$$

     RDKit          2D

 30 32  0  0  0  0  0  0  0  0999 V2000
   -2.0498   -0.2147    0.0000 C   0  0  0  0  0  0  0  0  0  0  0  0
   -1.5823    0.4309    0.0000 C   0  0  0  0  0  0  0  0  0  0  0  0
   -2.5076    1.6115    0.0000 C   0  0  0  0  0  0  0  0  0  0  0  0
   -0.0972    0.6421    0.0000 N   0  0  0  0  0  0  0  0  0  0  0  0
    0.9465   -0.4353    0.0000 C   0  0  0  0  0  0  0  0  0  0  0  0
    0.6884   -1.9129    0.0000 C   0  0  0  0  0  0  0  0  0  0  0  0
   -0.7203   -2.4282    0.0000 C   0  0  0  0  0  0  0  0  0  0  0  0
   -1.8709   -1.4659    0.0000 C   0  0  0  0  0  0  0  0  0  0  0  0
   -1.9278   -0.6707    0.0000 O   0  0  0  0  0  0  0  0  0  0  0  0
   -3.2796   -1.9811    0.0000 C   0  0  0  0  0  0  0  0  0  0  0  0
   -4.4302   -1.0188    0.0000 C   0  0  0  0  0  0  0  0  0  0  0  0
   -4.1721    0.4588    0.0000 O   0  0  0  0  0  0  0  0  0  0  0  0
   -5.8390   -1.5341    0.0000 C   0  0  0  0  0  0  0  0  0  0  0  0
   -6.9896   -0.5717    0.0000 C   0  0  0  0  0  0  0  0  0  0  0  0
   -6.7315    0.9059    0.0000 O   0  0  0  0  0  0  0  0  0  0  0  0
   -8.3983   -1.0870    0.0000 O   0  0  0  0  0  1  0  0  0  0  0  0
    2.2937    0.2244    0.0000 C   0  0  0  0  0  0  0  0  0  0  0  0
    3.6192   -0.4777    0.0000 C   0  0  0  0  0  0  0  0  0  0  0  0
    3.6739   -1.9767    0.0000 C   0  0  0  0  0  0  0  0  0  0  0  0
    4.9995   -2.6788    0.0000 C   0  0  0  0  0  0  0  0  0  0  0  0
    6.2703   -1.8818    0.0000 C   0  0  0  0  0  0  0  0  0  0  0  0
    7.5958   -2.5839    0.0000 F   0  0  0  0  0  0  0  0  0  0  0  0
    6.2155   -0.3828    0.0000 C   0  0  0  0  0  0  0  0  0  0  0  0
    4.8900    0.3193    0.0000 C   0  0  0  0  0  0  0  0  0  0  0  0
    2.0825    1.7095    0.0000 C   0  0  0  0  0  0  0  0  0  0  0  0
    3.0449    2.8601    0.0000 C   0  0  0  0  0  0  0  0  0  0  0  0
    2.5296    4.2688    0.0000 C   0  0  0  0  0  0  0  0  0  0  0  0
    1.0520    4.5269    0.0000 C   0  0  0  0  0  0  0  0  0  0  0  0
    0.0896    3.3763    0.0000 C   0  0  0  0  0  0  0  0  0  0  0  0
    0.6049    1.9676    0.0000 C   0  0  0  0  0  0  0  0  0  0  0  0
  1  2  1  0
  2  3  1  0
  2  4  1  0
  4  5  1  0
  5  6  1  0
  6  7  2  0
  7  8  1  0
  8  9  1  6
  8 10  1  0
 10 11  1  0
 11 12  1  6
 11 13  1  0
 13 14  1  0
 14 15  2  0
 14 16  1  0
  5 17  2  0
 17 18  1  0
 18 19  2  0
 19 20  1  0
 20 21  2  0
 21 22  1  0
 21 23  1  0
 23 24  2  0
 17 25  1  0
 25 26  2  0
 26 27  1  0
 27 28  2  0
 28 29  1  0
 29 30  2  0
 30  4  1  0
 24 18  1  0
 30 25  1  0
M  CHG  1  16  -1
M  END
> <Identifier>
FLUVASTATIN

> <hERG>
0

$$$$

     RDKit          2D

 24 27  0  0  0  0  0  0  0  0999 V2000
    2.2131   -5.1483    0.0000 F   0  0  0  0  0  0  0  0  0  0  0  0
    2.4178   -3.6624    0.0000 C   0  0  0  0  0  0  0  0  0  0  0  0
    1.2333   -2.7421    0.0000 C   0  0  0  0  0  0  0  0  0  0  0  0
    1.4380   -1.2561    0.0000 C   0  0  0  0  0  0  0  0  0  0  0  0
    2.8273   -0.6904    0.0000 C   0  0  0  0  0  0  0  0  0  0  0  0
    3.0320    0.7955    0.0000 C   0  0  0  0  0  0  0  0  0  0  0  0
    4.4212    1.3612    0.0000 C   0  0  0  0  0  0  0  0  0  0  0  0
    4.6259    2.8472    0.0000 C   0  0  0  0  0  0  0  0  0  0  0  0
    3.4414    3.7675    0.0000 N   0  0  0  0  0  4  0  0  0  0  0  0
    2.0522    3.2018    0.0000 C   0  0  0  0  0  0  0  0  0  0  0  0
    1.8475    1.7158    0.0000 C   0  0  0  0  0  0  0  0  0  0  0  0
    0.4582    1.1501    0.0000 C   0  0  0  0  0  0  0  0  0  0  0  0
   -0.7263    2.0704    0.0000 O   0  0  0  0  0  0  0  0  0  0  0  0
   -2.1155    1.5047    0.0000 C   0  0  0  0  0  0  0  0  0  0  0  0
   -3.3001    2.4249    0.0000 C   0  0  0  0  0  0  0  0  0  0  0  0
   -4.6893    1.8592    0.0000 C   0  0  0  0  0  0  0  0  0  0  0  0
   -4.8940    0.3733    0.0000 C   0  0  0  0  0  0  0  0  0  0  0  0
   -3.7095   -0.5470    0.0000 C   0  0  0  0  0  0  0  0  0  0  0  0
   -2.3203    0.0187    0.0000 C   0  0  0  0  0  0  0  0  0  0  0  0
   -4.2187   -1.9579    0.0000 O   0  0  0  0  0  0  0  0  0  0  0  0
   -5.7179   -1.9096    0.0000 C   0  0  0  0  0  0  0  0  0  0  0  0
   -6.1353   -0.4689    0.0000 O   0  0  0  0  0  0  0  0  0  0  0  0
    4.0118   -1.6107    0.0000 C   0  0  0  0  0  0  0  0  0  0  0  0
    3.8071   -3.0967    0.0000 C   0  0  0  0  0  0  0  0  0  0  0  0
  1  2  1  0
  2  3  2  0
  3  4  1  0
  4  5  2  0
  6  5  1  1
  6  7  1  0
  7  8  1  0
  8  9  1  0
  9 10  1  0
 10 11  1  0
 11 12  1  1
 12 13  1  0
 13 14  1  0
 14 15  2  0
 15 16  1  0
 16 17  2  0
 17 18  1  0
 18 19  2  0
 18 20  1  0
 20 21  1  0
 21 22  1  0
  5 23  1  0
 23 24  2  0
 24  2  1  0
 11  6  1  0
 19 14  1  0
 22 17  1  0
M  CHG  1   9   1
M  END
> <Identifier>
PAROXETINE

> <hERG>
0

$$$$

     RDKit          2D

 32 34  0  0  0  0  0  0  0  0999 V2000
  -10.0630   -0.3014    0.0000 C   0  0  0  0  0  0  0  0  0  0  0  0
   -8.6961   -0.9190    0.0000 C   0  0  0  0  0  0  0  0  0  0  0  0
   -8.3923   -2.3879    0.0000 N   0  0  0  0  0  0  0  0  0  0  0  0
   -6.9014   -2.5529    0.0000 N   0  0  0  0  0  0  0  0  0  0  0  0
   -6.2837   -1.1859    0.0000 C   0  0  0  0  0  0  0  0  0  0  0  0
   -4.8148   -0.8821    0.0000 C   0  0  0  0  0  0  0  0  0  0  0  0
   -3.8173   -2.0023    0.0000 O   0  0  0  0  0  0  0  0  0  0  0  0
   -4.3435    0.5419    0.0000 N   0  0  0  0  0  0  0  0  0  0  0  0
   -2.8746    0.8457    0.0000 C   0  0  0  0  0  0  0  0  0  0  0  0
   -2.5708   -0.6232    0.0000 C   0  0  0  0  0  0  0  0  0  0  0  0
   -3.1784    2.3146    0.0000 C   0  0  0  0  0  0  0  0  0  0  0  0
   -1.4057    1.1495    0.0000 C   0  0  0  0  0  0  0  0  0  0  0  0
   -0.4081    0.0293    0.0000 N   0  0  0  0  0  0  0  0  0  0  0  0
    1.0608    0.3332    0.0000 C   0  0  0  0  0  0  0  0  0  0  0  0
    2.0584   -0.7871    0.0000 C   0  0  0  0  0  0  0  0  0  0  0  0
    1.5870   -2.2111    0.0000 O   0  0  0  0  0  0  0  0  0  0  0  0
    3.5273   -0.4832    0.0000 N   0  0  0  0  0  0  0  0  0  0  0  0
    4.5249   -1.6034    0.0000 C   0  0  0  0  0  0  0  0  0  0  0  0
    5.9938   -1.2996    0.0000 C   0  0  0  0  0  0  0  0  0  0  0  0
    6.9913   -2.4198    0.0000 C   0  0  0  0  0  0  0  0  0  0  0  0
    8.4602   -2.1160    0.0000 C   0  0  0  0  0  0  0  0  0  0  0  0
    8.9316   -0.6920    0.0000 C   0  0  0  0  0  0  0  0  0  0  0  0
   10.4005   -0.3882    0.0000 F   0  0  0  0  0  0  0  0  0  0  0  0
    7.9340    0.4282    0.0000 C   0  0  0  0  0  0  0  0  0  0  0  0
    6.4651    0.1244    0.0000 C   0  0  0  0  0  0  0  0  0  0  0  0
    1.5322    1.7572    0.0000 C   0  0  0  0  0  0  0  0  0  0  0  0
    3.0011    2.0610    0.0000 O   0  0  0  0  0  0  0  0  0  0  0  0
    0.5346    2.8774    0.0000 C   0  0  0  0  0  0  0  0  0  0  0  0
    1.0059    4.3014    0.0000 O   0  0  0  0  0  0  0  0  0  0  0  0
   -0.9343    2.5736    0.0000 N   0  0  0  0  0  0  0  0  0  0  0  0
   -1.9319    3.6938    0.0000 C   0  0  0  0  0  0  0  0  0  0  0  0
   -7.3929   -0.1761    0.0000 O   0  0  0  0  0  0  0  0  0  0  0  0
  1  2  1  0
  2  3  2  0
  3  4  1  0
  4  5  2  0
  5  6  1  0
  6  7  2  0
  6  8  1  0
  8  9  1  0
  9 10  1  0
  9 11  1  0
  9 12  1  0
 12 13  2  0
 13 14  1  0
 14 15  2  0
 15 16  1  0
 15 17  1  0
 17 18  1  0
 18 19  1  0
 19 20  2  0
 20 21  1  0
 21 22  2  0
 22 23  1  0
 22 24  1  0
 24 25  2  0
 14 26  1  0
 26 27  2  0
 26 28  1  0
 28 29  2  0
 28 30  1  0
 30 31  1  0
  5 32  1  0
 32  2  1  0
 30 12  1  0
 25 19  1  0
M  END
> <Identifier>
RALTEGRAVIR

> <hERG>
0

$$$$

     RDKit          2D

 20 21  0  0  0  0  0  0  0  0999 V2000
   -6.4520    0.4621    0.0000 C   0  0  0  0  0  0  0  0  0  0  0  0
   -5.1546   -0.2907    0.0000 N   0  0  0  0  0  4  0  0  0  0  0  0
   -5.1579   -1.7907    0.0000 C   0  0  0  0  0  0  0  0  0  0  0  0
   -3.8540    0.4565    0.0000 C   0  0  0  0  0  0  0  0  0  0  0  0
   -2.5566   -0.2964    0.0000 C   0  0  0  0  0  0  0  0  0  0  0  0
   -1.2559    0.4508    0.0000 O   0  0  0  0  0  0  0  0  0  0  0  0
    0.0415   -0.3021    0.0000 C   0  0  0  0  0  0  0  0  0  0  0  0
   -0.7113   -1.5995    0.0000 C   0  0  0  0  0  0  0  0  0  0  0  0
    0.7943    0.9953    0.0000 C   0  0  0  0  0  0  0  0  0  0  0  0
    2.2943    0.9921    0.0000 C   0  0  0  0  0  0  0  0  0  0  0  0
    3.0472    2.2895    0.0000 C   0  0  0  0  0  0  0  0  0  0  0  0
    2.3000    3.5901    0.0000 C   0  0  0  0  0  0  0  0  0  0  0  0
    0.8000    3.5934    0.0000 C   0  0  0  0  0  0  0  0  0  0  0  0
    0.0472    2.2960    0.0000 C   0  0  0  0  0  0  0  0  0  0  0  0
    1.3389   -1.0549    0.0000 C   0  0  0  0  0  0  0  0  0  0  0  0
    1.3356   -2.5549    0.0000 C   0  0  0  0  0  0  0  0  0  0  0  0
    2.6330   -3.3077    0.0000 C   0  0  0  0  0  0  0  0  0  0  0  0
    3.9337   -2.5606    0.0000 C   0  0  0  0  0  0  0  0  0  0  0  0
    3.9370   -1.0606    0.0000 C   0  0  0  0  0  0  0  0  0  0  0  0
    2.6396   -0.3077    0.0000 N   0  0  0  0  0  0  0  0  0  0  0  0
  1  2  1  0
  2  3  1  0
  2  4  1  0
  4  5  1  0
  5  6  1  0
  6  7  1  0
  7  8  1  1
  7  9  1  0
  9 10  2  0
 10 11  1  0
 11 12  2  0
 12 13  1  0
 13 14  2  0
  7 15  1  0
 15 16  2  0
 16 17  1  0
 17 18  2  0
 18 19  1  0
 19 20  2  0
 14  9  1  0
 20 15  1  0
M  CHG  1   2   1
M  END
> <Identifier>
DOXYLAMINE

> <hERG>
0

$$$$

     RDKit          2D

 30 32  0  0  0  0  0  0  0  0999 V2000
   -4.4678    2.5901    0.0000 C   0  0  0  0  0  0  0  0  0  0  0  0
   -3.5392    1.4121    0.0000 C   0  0  0  0  0  0  0  0  0  0  0  0
   -2.0547    1.6273    0.0000 C   0  0  0  0  0  0  0  0  0  0  0  0
   -2.2699    3.1118    0.0000 C   0  0  0  0  0  0  0  0  0  0  0  0
   -1.8395    0.1428    0.0000 C   0  0  0  0  0  0  0  0  0  0  0  0
   -0.5702    1.8425    0.0000 C   0  0  0  0  0  0  0  0  0  0  0  0
   -0.0144    3.2357    0.0000 O   0  0  0  0  0  0  0  0  0  0  0  0
    0.3584    0.6645    0.0000 O   0  0  0  0  0  0  0  0  0  0  0  0
    1.8429    0.8797    0.0000 C   0  0  0  0  0  0  0  0  0  0  0  0
    2.3987    2.2729    0.0000 C   0  0  0  0  0  0  0  0  0  0  0  0
    3.8832    2.4881    0.0000 C   0  0  0  0  0  0  0  0  0  0  0  0
    4.4391    3.8813    0.0000 C   0  0  0  0  0  0  0  0  0  0  0  0
    4.8118    1.3101    0.0000 C   0  0  0  0  0  0  0  0  0  0  0  0
    4.2559   -0.0831    0.0000 C   0  0  0  0  0  0  0  0  0  0  0  0
    5.1846   -1.2611    0.0000 C   0  0  0  0  0  0  0  0  0  0  0  0
    4.6287   -2.6543    0.0000 C   0  0  0  0  0  0  0  0  0  0  0  0
    3.1442   -2.8695    0.0000 C   0  0  0  0  0  0  0  0  0  0  0  0
    2.5883   -4.2627    0.0000 C   0  0  0  0  0  0  0  0  0  0  0  0
    2.2156   -1.6915    0.0000 C   0  0  0  0  0  0  0  0  0  0  0  0
    0.7311   -1.9067    0.0000 C   0  0  0  0  0  0  0  0  0  0  0  0
   -0.1975   -0.7287    0.0000 C   0  0  0  0  0  0  0  0  0  0  0  0
   -1.6820   -0.9439    0.0000 C   0  0  0  0  0  0  0  0  0  0  0  0
   -2.6106    0.2341    0.0000 C   0  0  0  0  0  0  0  0  0  0  0  0
   -4.0951    0.0189    0.0000 C   0  0  0  0  0  0  0  0  0  0  0  0
   -5.0237    1.1969    0.0000 O   0  0  0  0  0  0  0  0  0  0  0  0
   -4.6509   -1.3743    0.0000 C   0  0  0  0  0  0  0  0  0  0  0  0
   -3.7223   -2.5523    0.0000 C   0  0  0  0  0  0  0  0  0  0  0  0
   -4.2782   -3.9455    0.0000 O   0  0  0  0  0  0  0  0  0  0  0  0
   -2.2379   -2.3371    0.0000 O   0  0  0  0  0  0  0  0  0  0  0  0
    2.7715   -0.2983    0.0000 C   0  0  0  0  0  0  0  0  0  0  0  0
  1  2  1  0
  2  3  1  0
  3  4  1  0
  3  5  1  0
  3  6  1  0
  6  7  2  0
  6  8  1  0
  9  8  1  1
  9 10  1  0
 10 11  1  0
 11 12  1  1
 11 13  1  0
 13 14  2  0
 14 15  1  0
 15 16  2  0
 16 17  1  0
 17 18  1  6
 17 19  1  0
 19 20  1  6
 20 21  1  0
 22 21  1  1
 22 23  1  0
 23 24  1  0
 24 25  1  6
 24 26  1  0
 26 27  1  0
 27 28  2  0
 27 29  1  0
 19 30  1  0
 30  9  1  0
 30 14  1  1
 29 22  1  0
M  END
> <Identifier>
SIMVASTATIN

> <hERG>
0

$$$$

     RDKit          2D

 35 35  0  0  0  0  0  0  0  0999 V2000
  -12.3202   -3.6818    0.0000 C   0  0  0  0  0  0  0  0  0  0  0  0
  -11.1851   -2.7011    0.0000 C   0  0  0  0  0  0  0  0  0  0  0  0
   -9.7683   -3.1938    0.0000 C   0  0  0  0  0  0  0  0  0  0  0  0
   -8.6333   -2.2131    0.0000 C   0  0  0  0  0  0  0  0  0  0  0  0
   -7.2165   -2.7057    0.0000 C   0  0  0  0  0  0  0  0  0  0  0  0
   -6.0815   -1.7251    0.0000 C   0  0  0  0  0  0  0  0  0  0  0  0
   -4.6647   -2.2177    0.0000 C   0  0  0  0  0  0  0  0  0  0  0  0
   -3.5296   -1.2371    0.0000 C   0  0  0  0  0  0  0  0  0  0  0  0
   -2.1128   -1.7297    0.0000 C   0  0  0  0  0  0  0  0  0  0  0  0
   -0.9778   -0.7491    0.0000 C   0  0  0  0  0  0  0  0  0  0  0  0
    0.4390   -1.2417    0.0000 C   0  0  0  0  0  0  0  0  0  0  0  0
    1.5740   -0.2611    0.0000 C   0  0  0  0  0  0  0  0  0  0  0  0
    2.9908   -0.7537    0.0000 C   0  0  0  0  0  0  0  0  0  0  0  0
    4.1259    0.2269    0.0000 C   0  0  0  0  0  0  0  0  0  0  0  0
    4.2350    1.7230    0.0000 O   0  0  0  0  0  0  0  0  0  0  0  0
    5.7311    1.6138    0.0000 C   0  0  0  0  0  0  0  0  0  0  0  0
    6.8661    2.5944    0.0000 O   0  0  0  0  0  0  0  0  0  0  0  0
    5.6219    0.1178    0.0000 C   0  0  0  0  0  0  0  0  0  0  0  0
    6.6025   -1.0173    0.0000 C   0  0  0  0  0  0  0  0  0  0  0  0
    6.1099   -2.4341    0.0000 C   0  0  0  0  0  0  0  0  0  0  0  0
    7.0906   -3.5691    0.0000 C   0  0  0  0  0  0  0  0  0  0  0  0
    6.5979   -4.9859    0.0000 C   0  0  0  0  0  0  0  0  0  0  0  0
    7.5786   -6.1209    0.0000 C   0  0  0  0  0  0  0  0  0  0  0  0
    7.0859   -7.5377    0.0000 C   0  0  0  0  0  0  0  0  0  0  0  0
    1.2923    1.2122    0.0000 O   0  0  0  0  0  0  0  0  0  0  0  0
   -0.1245    1.7049    0.0000 C   0  0  0  0  0  0  0  0  0  0  0  0
   -1.2595    0.7242    0.0000 O   0  0  0  0  0  0  0  0  0  0  0  0
   -0.4063    3.1782    0.0000 C   0  0  0  0  0  0  0  0  0  0  0  0
   -1.8231    3.6708    0.0000 C   0  0  0  0  0  0  0  0  0  0  0  0
   -2.1048    5.1441    0.0000 C   0  0  0  0  0  0  0  0  0  0  0  0
   -3.5216    5.6368    0.0000 C   0  0  0  0  0  0  0  0  0  0  0  0
   -0.9698    6.1248    0.0000 C   0  0  0  0  0  0  0  0  0  0  0  0
    0.7288    4.1588    0.0000 N   0  0  0  0  0  0  0  0  0  0  0  0
    0.4470    5.6321    0.0000 C   0  0  0  0  0  0  0  0  0  0  0  0
    1.5821    6.6128    0.0000 O   0  0  0  0  0  0  0  0  0  0  0  0
  1  2  1  0
  2  3  1  0
  3  4  1  0
  4  5  1  0
  5  6  1  0
  6  7  1  0
  7  8  1  0
  8  9  1  0
  9 10  1  0
 10 11  1  0
 12 11  1  6
 12 13  1  0
 14 13  1  6
 14 15  1  0
 15 16  1  0
 16 17  2  0
 16 18  1  0
 18 19  1  1
 19 20  1  0
 20 21  1  0
 21 22  1  0
 22 23  1  0
 23 24  1  0
 12 25  1  0
 25 26  1  0
 26 27  2  0
 26 28  1  0
 28 29  1  6
 29 30  1  0
 30 31  1  0
 30 32  1  0
 28 33  1  0
 33 34  1  0
 34 35  2  0
 18 14  1  0
M  END
> <Identifier>
ORLISTAT

> <hERG>
0

$$$$

     RDKit          2D

 23 27  0  0  0  0  0  0  0  0999 V2000
   -5.5822   -1.0628    0.0000 C   0  0  0  0  0  0  0  0  0  0  0  0
   -4.1335   -1.4518    0.0000 O   0  0  0  0  0  0  0  0  0  0  0  0
   -3.0723   -0.3916    0.0000 C   0  0  0  0  0  0  0  0  0  0  0  0
   -3.4598    1.0575    0.0000 C   0  0  0  0  0  0  0  0  0  0  0  0
   -2.3986    2.1176    0.0000 C   0  0  0  0  0  0  0  0  0  0  0  0
   -0.9499    1.7286    0.0000 C   0  0  0  0  0  0  0  0  0  0  0  0
   -0.5624    0.2796    0.0000 C   0  0  0  0  0  0  0  0  0  0  0  0
   -1.6236   -0.7806    0.0000 C   0  0  0  0  0  0  0  0  0  0  0  0
   -0.9432   -2.1174    0.0000 O   0  0  0  0  0  0  0  0  0  0  0  0
    0.5384   -1.8835    0.0000 C   0  0  0  0  0  0  0  0  0  0  0  0
    1.7037   -2.8281    0.0000 C   0  0  0  0  0  0  0  0  0  0  0  0
    1.4683   -4.3095    0.0000 O   0  0  0  0  0  0  0  0  0  0  0  0
    3.1043   -2.2912    0.0000 C   0  0  0  0  0  0  0  0  0  0  0  0
    3.3397   -0.8098    0.0000 C   0  0  0  0  0  0  0  0  0  0  0  0
    2.1744    0.1348    0.0000 C   0  0  0  0  0  0  0  0  0  0  0  0
    3.5751    0.6716    0.0000 O   0  0  0  0  0  0  0  0  0  0  0  0
    2.4098    1.6162    0.0000 C   0  0  0  0  0  0  0  0  0  0  0  0
    0.3735    2.4348    0.0000 C   0  0  0  0  0  0  0  0  0  0  0  0
    1.1347    1.8694    0.0000 N   0  0  0  0  0  4  0  0  0  0  0  0
    1.4799    4.0422    0.0000 C   0  0  0  0  0  0  0  0  0  0  0  0
    0.3877    1.5831    0.0000 C   0  0  0  0  0  0  0  0  0  0  0  0
    0.2622    0.7930    0.0000 C   0  0  0  0  0  0  0  0  0  0  0  0
    0.7738   -0.4021    0.0000 C   0  0  0  0  0  0  0  0  0  0  0  0
  1  2  1  0
  2  3  1  0
  3  4  2  0
  4  5  1  0
  5  6  2  0
  6  7  1  0
  7  8  2  0
  8  9  1  0
 10  9  1  6
 10 11  1  0
 11 12  2  0
 11 13  1  0
 13 14  1  0
 14 15  1  0
 15 16  1  1
 15 17  1  0
 17 18  1  6
 17 19  1  0
 19 20  1  0
 19 21  1  0
 21 22  1  0
 23 22  1  1
  8  3  1  0
 23 10  1  0
 18  6  1  0
 23  7  1  0
 23 15  1  0
M  CHG  1  19   1
M  END
> <Identifier>
OXYCODONE

> <hERG>
0

$$$$

     RDKit          2D

 32 34  0  0  0  0  0  0  0  0999 V2000
   -3.0767    5.5616    0.0000 C   0  0  0  0  0  0  0  0  0  0  0  0
   -3.5989    4.1555    0.0000 C   0  0  0  0  0  0  0  0  0  0  0  0
   -2.6423    3.0001    0.0000 C   0  0  0  0  0  0  0  0  0  0  0  0
   -3.1645    1.5940    0.0000 C   0  0  0  0  0  0  0  0  0  0  0  0
   -2.2079    0.4386    0.0000 C   0  0  0  0  0  0  0  0  0  0  0  0
   -0.7290    0.6894    0.0000 O   0  0  0  0  0  0  0  0  0  0  0  0
   -2.7301   -0.9675    0.0000 N   0  0  0  0  0  0  0  0  0  0  0  0
   -1.7734   -2.1229    0.0000 C   0  0  0  0  0  0  0  0  0  0  0  0
   -0.2946   -1.8721    0.0000 C   0  0  0  0  0  0  0  0  0  0  0  0
    0.2277   -0.4659    0.0000 C   0  0  0  0  0  0  0  0  0  0  0  0
    1.7066   -0.2151    0.0000 C   0  0  0  0  0  0  0  0  0  0  0  0
    2.6632   -1.3704    0.0000 C   0  0  0  0  0  0  0  0  0  0  0  0
    4.1421   -1.1196    0.0000 C   0  0  0  0  0  0  0  0  0  0  0  0
    5.0987   -2.2750    0.0000 C   0  0  0  0  0  0  0  0  0  0  0  0
    6.5776   -2.0242    0.0000 C   0  0  0  0  0  0  0  0  0  0  0  0
    7.0998   -0.6180    0.0000 C   0  0  0  0  0  0  0  0  0  0  0  0
    6.1432    0.5373    0.0000 C   0  0  0  0  0  0  0  0  0  0  0  0
    4.6643    0.2865    0.0000 C   0  0  0  0  0  0  0  0  0  0  0  0
    3.7077    1.4419    0.0000 C   0  0  0  0  0  0  0  0  0  0  0  0
    2.2107    1.3470    0.0000 N   0  0  0  0  0  0  0  0  0  0  0  0
    1.6579    2.7414    0.0000 N   0  0  0  0  0  0  0  0  0  0  0  0
    2.8132    3.6981    0.0000 N   0  0  0  0  0  2  0  0  0  0  0  0
    4.0801    2.8949    0.0000 N   0  0  0  0  0  0  0  0  0  0  0  0
    2.1410   -2.7766    0.0000 C   0  0  0  0  0  0  0  0  0  0  0  0
    0.6621   -3.0274    0.0000 C   0  0  0  0  0  0  0  0  0  0  0  0
   -4.2090   -1.2183    0.0000 C   0  0  0  0  0  0  0  0  0  0  0  0
   -4.7312   -2.6245    0.0000 C   0  0  0  0  0  0  0  0  0  0  0  0
   -3.7746   -3.7798    0.0000 O   0  0  0  0  0  0  0  0  0  0  0  0
   -6.2101   -2.8753    0.0000 O   0  0  0  0  0  1  0  0  0  0  0  0
   -5.1656   -0.0630    0.0000 C   0  0  0  0  0  0  0  0  0  0  0  0
   -6.6445   -0.3138    0.0000 C   0  0  0  0  0  0  0  0  0  0  0  0
   -4.6434    1.3432    0.0000 C   0  0  0  0  0  0  0  0  0  0  0  0
  1  2  1  0
  2  3  1  0
  3  4  1  0
  4  5  1  0
  5  6  2  0
  5  7  1  0
  7  8  1  0
  8  9  1  0
  9 10  2  0
 10 11  1  0
 11 12  2  0
 12 13  1  0
 13 14  2  0
 14 15  1  0
 15 16  2  0
 16 17  1  0
 17 18  2  0
 18 19  1  0
 19 20  1  0
 20 21  2  0
 21 22  1  0
 22 23  1  0
 12 24  1  0
 24 25  2  0
  7 26  1  0
 26 27  1  0
 27 28  2  0
 27 29  1  0
 26 30  1  6
 30 31  1  0
 30 32  1  0
 25  9  1  0
 18 13  1  0
 23 19  2  0
M  CHG  2  22  -1  29  -1
M  END
> <Identifier>
VALSARTAN

> <hERG>
0

$$$$

     RDKit          2D

 29 30  0  0  0  0  0  0  0  0999 V2000
   -5.5310   -4.4234    0.0000 N   0  0  0  0  0  4  0  0  0  0  0  0
   -4.9014   -3.0620    0.0000 C   0  0  0  0  0  0  0  0  0  0  0  0
   -3.4075   -2.9265    0.0000 C   0  0  0  0  0  0  0  0  0  0  0  0
   -2.7779   -1.5651    0.0000 C   0  0  0  0  0  0  0  0  0  0  0  0
   -1.2840   -1.4296    0.0000 C   0  0  0  0  0  0  0  0  0  0  0  0
   -0.6544   -0.0681    0.0000 C   0  0  0  0  0  0  0  0  0  0  0  0
    0.8394    0.0673    0.0000 N   0  0  0  0  0  4  0  0  0  0  0  0
    1.7037   -1.1587    0.0000 C   0  0  0  0  0  0  0  0  0  0  0  0
    3.1976   -1.0232    0.0000 C   0  0  0  0  0  0  0  0  0  0  0  0
    3.8272    0.3383    0.0000 C   0  0  0  0  0  0  0  0  0  0  0  0
    5.3211    0.4737    0.0000 C   0  0  0  0  0  0  0  0  0  0  0  0
    5.9507    1.8352    0.0000 C   0  0  0  0  0  0  0  0  0  0  0  0
    7.4445    1.9707    0.0000 C   0  0  0  0  0  0  0  0  0  0  0  0
    8.3088    0.7447    0.0000 C   0  0  0  0  0  0  0  0  0  0  0  0
    7.6792   -0.6168    0.0000 C   0  0  0  0  0  0  0  0  0  0  0  0
    6.1853   -0.7523    0.0000 C   0  0  0  0  0  0  0  0  0  0  0  0
    1.0741   -2.5201    0.0000 C   0  0  0  0  0  0  0  0  0  0  0  0
    1.9383   -3.7461    0.0000 O   0  0  0  0  0  0  0  0  0  0  0  0
   -0.4198   -2.6556    0.0000 O   0  0  0  0  0  1  0  0  0  0  0  0
   -1.5187    1.1579    0.0000 C   0  0  0  0  0  0  0  0  0  0  0  0
   -0.8891    2.5193    0.0000 O   0  0  0  0  0  0  0  0  0  0  0  0
   -3.0125    1.0224    0.0000 N   0  0  0  0  0  0  0  0  0  0  0  0
   -3.7810   -0.2658    0.0000 C   0  0  0  0  0  0  0  0  0  0  0  0
   -5.2436    0.0670    0.0000 C   0  0  0  0  0  0  0  0  0  0  0  0
   -5.3791    1.5609    0.0000 C   0  0  0  0  0  0  0  0  0  0  0  0
   -4.0002    2.1513    0.0000 C   0  0  0  0  0  0  0  0  0  0  0  0
   -3.6674    3.6140    0.0000 C   0  0  0  0  0  0  0  0  0  0  0  0
   -2.2344    4.0571    0.0000 O   0  0  0  0  0  0  0  0  0  0  0  0
   -4.7677    4.6335    0.0000 O   0  0  0  0  0  1  0  0  0  0  0  0
  1  2  1  0
  2  3  1  0
  3  4  1  0
  4  5  1  0
  6  5  1  1
  6  7  1  0
  7  8  1  0
  8  9  1  6
  9 10  1  0
 10 11  1  0
 11 12  2  0
 12 13  1  0
 13 14  2  0
 14 15  1  0
 15 16  2  0
  8 17  1  0
 17 18  2  0
 17 19  1  0
  6 20  1  0
 20 21  2  0
 20 22  1  0
 22 23  1  0
 23 24  1  0
 24 25  1  0
 25 26  1  0
 26 27  1  1
 27 28  2  0
 27 29  1  0
 16 11  1  0
 26 22  1  0
M  CHG  4   1   1   7   1  19  -1  29  -1
M  END
> <Identifier>
LISINOPRIL

> <hERG>
0

$$$$

     RDKit          2D

 27 27  0  0  0  0  0  0  0  0999 V2000
    6.1880   -6.3559    0.0000 C   0  0  0  0  0  0  0  0  0  0  0  0
    6.0019   -4.8675    0.0000 C   0  0  0  0  0  0  0  0  0  0  0  0
    4.6199   -4.2844    0.0000 C   0  0  0  0  0  0  0  0  0  0  0  0
    4.4338   -2.7960    0.0000 C   0  0  0  0  0  0  0  0  0  0  0  0
    3.0517   -2.2129    0.0000 C   0  0  0  0  0  0  0  0  0  0  0  0
    1.6697   -1.6299    0.0000 C   0  0  0  0  0  0  0  0  0  0  0  0
    2.4687   -3.5950    0.0000 O   0  0  0  0  0  0  0  0  0  0  0  0
    3.6348   -0.8309    0.0000 C   0  0  0  0  0  0  0  0  0  0  0  0
    2.7295    0.3651    0.0000 C   0  0  0  0  0  0  0  0  0  0  0  0
    3.3125    1.7471    0.0000 C   0  0  0  0  0  0  0  0  0  0  0  0
    2.4072    2.9431    0.0000 C   0  0  0  0  0  0  0  0  0  0  0  0
    2.8426    4.3785    0.0000 C   0  0  0  0  0  0  0  0  0  0  0  0
    4.2598    4.8700    0.0000 O   0  0  0  0  0  0  0  0  0  0  0  0
    1.6120    5.2362    0.0000 C   0  0  0  0  0  0  0  0  0  0  0  0
    0.4160    4.3308    0.0000 C   0  0  0  0  0  0  0  0  0  0  0  0
   -1.0194    4.7662    0.0000 O   0  0  0  0  0  0  0  0  0  0  0  0
    0.9075    2.9136    0.0000 C   0  0  0  0  0  0  0  0  0  0  0  0
    0.0498    1.6830    0.0000 C   0  0  0  0  0  0  0  0  0  0  0  0
   -1.4448    1.8105    0.0000 C   0  0  0  0  0  0  0  0  0  0  0  0
   -2.3024    0.5798    0.0000 C   0  0  0  0  0  0  0  0  0  0  0  0
   -3.7970    0.7073    0.0000 C   0  0  0  0  0  0  0  0  0  0  0  0
   -4.6547   -0.5233    0.0000 C   0  0  0  0  0  0  0  0  0  0  0  0
   -6.1493   -0.3959    0.0000 C   0  0  0  0  0  0  0  0  0  0  0  0
   -7.0069   -1.6265    0.0000 C   0  0  0  0  0  0  0  0  0  0  0  0
   -6.3700   -2.9845    0.0000 O   0  0  0  0  0  0  0  0  0  0  0  0
   -8.5015   -1.4990    0.0000 O   0  0  0  0  0  0  0  0  0  0  0  0
   -9.3592   -2.7296    0.0000 C   0  0  0  0  0  0  0  0  0  0  0  0
  1  2  1  0
  2  3  1  0
  3  4  1  0
  4  5  1  0
  5  6  1  1
  5  7  1  0
  5  8  1  0
  8  9  1  0
  9 10  2  0
 11 10  1  6
 11 12  1  0
 12 13  1  1
 12 14  1  0
 14 15  1  0
 15 16  2  0
 15 17  1  0
 17 18  1  1
 18 19  1  0
 19 20  1  0
 20 21  1  0
 21 22  1  0
 22 23  1  0
 23 24  1  0
 24 25  2  0
 24 26  1  0
 26 27  1  0
 17 11  1  0
M  END
> <Identifier>
MISOPROSTOL

> <hERG>
0

$$$$

     RDKit          2D

 23 26  0  0  0  0  0  0  0  0999 V2000
    0.9221    2.5721    0.0000 O   0  0  0  0  0  0  0  0  0  0  0  0
    0.7504    1.0820    0.0000 C   0  0  0  0  0  0  0  0  0  0  0  0
   -0.7397    1.2536    0.0000 C   0  0  0  0  0  0  0  0  0  0  0  0
   -1.6335    0.0490    0.0000 C   0  0  0  0  0  0  0  0  0  0  0  0
   -3.1236    0.2206    0.0000 N   0  0  0  0  0  4  0  0  0  0  0  0
   -3.7200    1.5969    0.0000 C   0  0  0  0  0  0  0  0  0  0  0  0
   -5.2102    1.7686    0.0000 C   0  0  0  0  0  0  0  0  0  0  0  0
   -6.1039    0.5639    0.0000 C   0  0  0  0  0  0  0  0  0  0  0  0
   -5.5075   -0.8124    0.0000 C   0  0  0  0  0  0  0  0  0  0  0  0
   -4.0173   -0.9841    0.0000 C   0  0  0  0  0  0  0  0  0  0  0  0
    0.5788   -0.4082    0.0000 C   0  0  0  0  0  0  0  0  0  0  0  0
   -0.7976   -1.0046    0.0000 C   0  0  0  0  0  0  0  0  0  0  0  0
   -0.9692   -2.4947    0.0000 C   0  0  0  0  0  0  0  0  0  0  0  0
    0.2355   -3.3884    0.0000 C   0  0  0  0  0  0  0  0  0  0  0  0
    1.6118   -2.7920    0.0000 C   0  0  0  0  0  0  0  0  0  0  0  0
    1.7835   -1.3019    0.0000 C   0  0  0  0  0  0  0  0  0  0  0  0
    2.2406    0.9104    0.0000 C   0  0  0  0  0  0  0  0  0  0  0  0
    3.2553    2.0150    0.0000 C   0  0  0  0  0  0  0  0  0  0  0  0
    4.6195    1.3913    0.0000 C   0  0  0  0  0  0  0  0  0  0  0  0
    5.3565    0.0848    0.0000 C   0  0  0  0  0  0  0  0  0  0  0  0
    4.3418   -1.0198    0.0000 C   0  0  0  0  0  0  0  0  0  0  0  0
    2.9776   -0.3961    0.0000 C   0  0  0  0  0  0  0  0  0  0  0  0
    3.1492    1.0941    0.0000 C   0  0  0  0  0  0  0  0  0  0  0  0
  2  1  1  1
  2  3  1  0
  3  4  1  0
  4  5  1  0
  5  6  1  0
  6  7  1  0
  7  8  1  0
  8  9  1  0
  9 10  1  0
  2 11  1  0
 11 12  2  0
 12 13  1  0
 13 14  2  0
 14 15  1  0
 15 16  2  0
  2 17  1  0
 17 18  1  6
 19 18  1  6
 19 20  1  0
 20 21  2  0
 22 21  1  6
 22 23  1  0
 10  5  1  0
 16 11  1  0
 22 17  1  0
 23 19  1  0
M  CHG  1   5   1
M  END
> <Identifier>
BIPERIDEN

> <hERG>
0

$$$$

     RDKit          2D

 31 33  0  0  0  0  0  0  0  0999 V2000
    4.6587   -1.8427    0.0000 C   0  0  0  0  0  0  0  0  0  0  0  0
    3.3152   -1.1756    0.0000 C   0  0  0  0  0  0  0  0  0  0  0  0
    2.0657   -2.0055    0.0000 C   0  0  0  0  0  0  0  0  0  0  0  0
    0.7222   -1.3384    0.0000 N   0  0  0  0  0  0  0  0  0  0  0  0
   -0.5273   -2.1683    0.0000 C   0  0  0  0  0  0  0  0  0  0  0  0
   -1.8707   -1.5012    0.0000 C   0  0  0  0  0  0  0  0  0  0  0  0
   -3.1202   -2.3311    0.0000 C   0  0  0  0  0  0  0  0  0  0  0  0
   -4.4637   -1.6639    0.0000 C   0  0  0  0  0  0  0  0  0  0  0  0
   -4.5577   -0.1669    0.0000 C   0  0  0  0  0  0  0  0  0  0  0  0
   -5.9012    0.5002    0.0000 C   0  0  0  0  0  0  0  0  0  0  0  0
   -7.1507   -0.3297    0.0000 C   0  0  0  0  0  0  0  0  0  0  0  0
   -7.0567   -1.8267    0.0000 C   0  0  0  0  0  0  0  0  0  0  0  0
   -5.7132   -2.4939    0.0000 C   0  0  0  0  0  0  0  0  0  0  0  0
   -1.9647   -0.0041    0.0000 C   0  0  0  0  0  0  0  0  0  0  0  0
   -0.7152    0.8258    0.0000 O   0  0  0  0  0  0  0  0  0  0  0  0
   -3.3082    0.6630    0.0000 N   0  0  0  0  0  0  0  0  0  0  0  0
   -3.4022    2.1601    0.0000 C   0  0  0  0  0  0  0  0  0  0  0  0
   -4.7456    2.8272    0.0000 C   0  0  0  0  0  0  0  0  0  0  0  0
   -5.9951    1.9973    0.0000 O   0  0  0  0  0  0  0  0  0  0  0  0
   -4.8396    4.3243    0.0000 O   0  0  0  0  0  0  0  0  0  0  0  0
    0.6283    0.1587    0.0000 C   0  0  0  0  0  0  0  0  0  0  0  0
    1.8778    0.9886    0.0000 C   0  0  0  0  0  0  0  0  0  0  0  0
    3.2212    0.3215    0.0000 C   0  0  0  0  0  0  0  0  0  0  0  0
    3.6449    1.7604    0.0000 C   0  0  0  0  0  0  0  0  0  0  0  0
    4.7119    0.1540    0.0000 C   0  0  0  0  0  0  0  0  0  0  0  0
    5.3122   -1.2206    0.0000 C   0  0  0  0  0  0  0  0  0  0  0  0
    6.8028   -1.3880    0.0000 C   0  0  0  0  0  0  0  0  0  0  0  0
    7.6931   -0.1808    0.0000 C   0  0  0  0  0  0  0  0  0  0  0  0
    7.0928    1.1939    0.0000 C   0  0  0  0  0  0  0  0  0  0  0  0
    7.9831    2.4011    0.0000 O   0  0  0  0  0  0  0  0  0  0  0  0
    5.6022    1.3613    0.0000 C   0  0  0  0  0  0  0  0  0  0  0  0
  2  1  1  1
  2  3  1  0
  3  4  1  0
  4  5  1  0
  6  5  1  6
  6  7  1  0
  7  8  1  0
  8  9  2  0
  9 10  1  0
 10 11  2  0
 11 12  1  0
 12 13  2  0
  6 14  1  0
 14 15  2  0
 14 16  1  0
 16 17  1  0
 17 18  1  0
 18 19  2  0
 18 20  1  0
  4 21  1  0
 21 22  1  0
 22 23  1  0
 23 24  1  6
 23 25  1  0
 25 26  2  0
 26 27  1  0
 27 28  2  0
 28 29  1  0
 29 30  1  0
 29 31  2  0
 23  2  1  0
 31 25  1  0
 13  8  1  0
M  END
> <Identifier>
ALVIMOPAN

> <hERG>
0

$$$$

     RDKit          2D

 32 35  0  0  0  0  0  0  0  0999 V2000
   -7.3068   -3.3972    0.0000 C   0  0  0  0  0  0  0  0  0  0  0  0
   -7.3449   -1.8977    0.0000 C   0  0  0  0  0  0  0  0  0  0  0  0
   -8.6626   -1.1809    0.0000 C   0  0  0  0  0  0  0  0  0  0  0  0
   -6.0654   -1.1149    0.0000 N   0  0  0  0  0  0  0  0  0  0  0  0
   -6.1036    0.3847    0.0000 C   0  0  0  0  0  0  0  0  0  0  0  0
   -7.4212    1.1014    0.0000 C   0  0  0  0  0  0  0  0  0  0  0  0
   -7.4594    2.6009    0.0000 C   0  0  0  0  0  0  0  0  0  0  0  0
   -6.1799    3.3837    0.0000 C   0  0  0  0  0  0  0  0  0  0  0  0
   -4.8622    2.6670    0.0000 N   0  0  0  0  0  0  0  0  0  0  0  0
   -4.8240    1.1675    0.0000 C   0  0  0  0  0  0  0  0  0  0  0  0
   -3.5063    0.4507    0.0000 N   0  0  0  0  0  0  0  0  0  0  0  0
   -3.4682   -1.0488    0.0000 C   0  0  0  0  0  0  0  0  0  0  0  0
   -2.1505   -1.7655    0.0000 C   0  0  0  0  0  0  0  0  0  0  0  0
   -0.8709   -0.9827    0.0000 N   0  0  0  0  0  0  0  0  0  0  0  0
    0.4468   -1.6994    0.0000 C   0  0  0  0  0  0  0  0  0  0  0  0
    0.4849   -3.1989    0.0000 O   0  0  0  0  0  0  0  0  0  0  0  0
    1.7263   -0.9166    0.0000 C   0  0  0  0  0  0  0  0  0  0  0  0
    3.1117   -1.4916    0.0000 C   0  0  0  0  0  0  0  0  0  0  0  0
    4.0867   -0.3518    0.0000 C   0  0  0  0  0  0  0  0  0  0  0  0
    5.5862   -0.3136    0.0000 C   0  0  0  0  0  0  0  0  0  0  0  0
    6.3029    1.0041    0.0000 C   0  0  0  0  0  0  0  0  0  0  0  0
    7.8025    1.0423    0.0000 N   0  0  0  0  0  0  0  0  0  0  0  0
    8.5853   -0.2373    0.0000 S   0  0  0  0  0  0  0  0  0  0  0  0
    9.3681   -1.5168    0.0000 C   0  0  0  0  0  0  0  0  0  0  0  0
    7.3057   -1.0201    0.0000 O   0  0  0  0  0  0  0  0  0  0  0  0
    9.8648    0.5455    0.0000 O   0  0  0  0  0  0  0  0  0  0  0  0
    5.5201    2.2836    0.0000 C   0  0  0  0  0  0  0  0  0  0  0  0
    4.0206    2.2455    0.0000 C   0  0  0  0  0  0  0  0  0  0  0  0
    3.3039    0.9278    0.0000 C   0  0  0  0  0  0  0  0  0  0  0  0
    1.8451    0.5787    0.0000 N   0  0  0  0  0  0  0  0  0  0  0  0
   -0.9091    0.5168    0.0000 C   0  0  0  0  0  0  0  0  0  0  0  0
   -2.2268    1.2335    0.0000 C   0  0  0  0  0  0  0  0  0  0  0  0
  1  2  1  0
  2  3  1  0
  2  4  1  0
  4  5  1  0
  5  6  2  0
  6  7  1  0
  7  8  2  0
  8  9  1  0
  9 10  2  0
 10 11  1  0
 11 12  1  0
 12 13  1  0
 13 14  1  0
 14 15  1  0
 15 16  2  0
 15 17  1  0
 17 18  2  0
 18 19  1  0
 19 20  2  0
 20 21  1  0
 21 22  1  1
 22 23  1  0
 23 24  1  0
 23 25  2  0
 23 26  2  0
 21 27  1  0
 27 28  2  0
 28 29  1  0
 29 30  2  0
 14 31  1  0
 31 32  1  0
 10  5  1  0
 32 11  1  0
 30 17  1  0
 29 19  1  0
M  END
> <Identifier>
DELAVIRDINE

> <hERG>
0

$$$$

     RDKit          2D

 31 33  0  0  0  0  0  0  0  0999 V2000
   11.6719   -0.9747    0.0000 C   0  0  0  0  0  0  0  0  0  0  0  0
   10.1721   -0.9518    0.0000 C   0  0  0  0  0  0  0  0  0  0  0  0
    9.4023   -2.2392    0.0000 C   0  0  0  0  0  0  0  0  0  0  0  0
    7.9025   -2.2163    0.0000 N   0  0  0  0  0  0  0  0  0  0  0  0
    7.1725   -0.9059    0.0000 C   0  0  0  0  0  0  0  0  0  0  0  0
    5.6726   -0.8830    0.0000 C   0  0  0  0  0  0  0  0  0  0  0  0
    4.9029   -2.1704    0.0000 O   0  0  0  0  0  0  0  0  0  0  0  0
    4.9426    0.4273    0.0000 N   0  0  0  0  0  0  0  0  0  0  0  0
    3.4428    0.4503    0.0000 C   0  0  0  0  0  0  0  0  0  0  0  0
    2.7127    1.7606    0.0000 C   0  0  0  0  0  0  0  0  0  0  0  0
    1.2129    1.7836    0.0000 C   0  0  0  0  0  0  0  0  0  0  0  0
    0.4828    3.0939    0.0000 C   0  0  0  0  0  0  0  0  0  0  0  0
   -1.0170    3.1168    0.0000 C   0  0  0  0  0  0  0  0  0  0  0  0
   -1.7868    1.8294    0.0000 C   0  0  0  0  0  0  0  0  0  0  0  0
   -3.2866    1.8524    0.0000 S   0  0  0  0  0  0  0  0  0  0  0  0
   -3.3095    0.3525    0.0000 O   0  0  0  0  0  0  0  0  0  0  0  0
   -3.2636    3.3522    0.0000 O   0  0  0  0  0  1  0  0  0  0  0  0
   -4.7864    1.8753    0.0000 N   0  0  0  0  0  0  0  0  0  0  0  0
   -5.5562    0.5879    0.0000 C   0  0  0  0  0  0  0  0  0  0  0  0
   -4.8261   -0.7225    0.0000 O   0  0  0  0  0  0  0  0  0  0  0  0
   -7.0560    0.6108    0.0000 N   0  0  0  0  0  0  0  0  0  0  0  0
   -7.8258   -0.6766    0.0000 C   0  0  0  0  0  0  0  0  0  0  0  0
   -9.3256   -0.6537    0.0000 C   0  0  0  0  0  0  0  0  0  0  0  0
  -10.0954   -1.9411    0.0000 C   0  0  0  0  0  0  0  0  0  0  0  0
   -9.3653   -3.2515    0.0000 C   0  0  0  0  0  0  0  0  0  0  0  0
   -7.8655   -3.2744    0.0000 C   0  0  0  0  0  0  0  0  0  0  0  0
   -7.0957   -1.9870    0.0000 C   0  0  0  0  0  0  0  0  0  0  0  0
   -1.0567    0.5191    0.0000 C   0  0  0  0  0  0  0  0  0  0  0  0
    0.4431    0.4961    0.0000 C   0  0  0  0  0  0  0  0  0  0  0  0
    7.9422    0.3815    0.0000 C   0  0  0  0  0  0  0  0  0  0  0  0
    9.4421    0.3585    0.0000 N   0  0  0  0  0  0  0  0  0  0  0  0
  1  2  1  0
  2  3  2  0
  3  4  1  0
  4  5  2  0
  5  6  1  0
  6  7  2  0
  6  8  1  0
  8  9  1  0
  9 10  1  0
 10 11  1  0
 11 12  2  0
 12 13  1  0
 13 14  2  0
 14 15  1  0
 15 16  2  0
 15 17  1  0
 15 18  2  0
 18 19  1  0
 19 20  2  0
 19 21  1  0
 21 22  1  0
 22 23  1  0
 23 24  1  0
 24 25  1  0
 25 26  1  0
 26 27  1  0
 14 28  1  0
 28 29  2  0
  5 30  1  0
 30 31  2  0
 31  2  1  0
 29 11  1  0
 27 22  1  0
M  CHG  1  17  -1
M  END
> <Identifier>
GLIPIZIDE

> <hERG>
0

$$$$

     RDKit          2D

 25 27  0  0  0  0  0  0  0  0999 V2000
   -9.0007   -2.2367    0.0000 C   0  0  0  0  0  0  0  0  0  0  0  0
   -7.5387   -2.5725    0.0000 C   0  0  0  0  0  0  0  0  0  0  0  0
   -6.5170   -1.4744    0.0000 C   0  0  0  0  0  0  0  0  0  0  0  0
   -6.9571   -0.0404    0.0000 C   0  0  0  0  0  0  0  0  0  0  0  0
   -5.9353    1.0578    0.0000 C   0  0  0  0  0  0  0  0  0  0  0  0
   -4.4734    0.7220    0.0000 C   0  0  0  0  0  0  0  0  0  0  0  0
   -3.4516    1.8201    0.0000 C   0  0  0  0  0  0  0  0  0  0  0  0
   -1.9897    1.4843    0.0000 C   0  0  0  0  0  0  0  0  0  0  0  0
   -0.9679    2.5825    0.0000 O   0  0  0  0  0  0  0  0  0  0  0  0
    0.4940    2.2467    0.0000 C   0  0  0  0  0  0  0  0  0  0  0  0
    0.9342    0.8127    0.0000 C   0  0  0  0  0  0  0  0  0  0  0  0
    2.3961    0.4769    0.0000 C   0  0  0  0  0  0  0  0  0  0  0  0
    3.4179    1.5750    0.0000 C   0  0  0  0  0  0  0  0  0  0  0  0
    4.8798    1.2392    0.0000 C   0  0  0  0  0  0  0  0  0  0  0  0
    5.3200   -0.1948    0.0000 C   0  0  0  0  0  0  0  0  0  0  0  0
    6.7388   -0.6815    0.0000 S   0  0  0  0  0  0  0  0  0  0  0  0
    6.7143   -2.1813    0.0000 C   0  0  0  0  0  0  0  0  0  0  0  0
    7.9132   -3.0827    0.0000 O   0  0  0  0  0  0  0  0  0  0  0  0
    5.2803   -2.6215    0.0000 N   0  0  0  0  0  0  0  0  0  0  0  0
    4.4186   -1.3937    0.0000 C   0  0  0  0  0  0  0  0  0  0  0  0
    2.9188   -1.3692    0.0000 O   0  0  0  0  0  0  0  0  0  0  0  0
    2.9778    3.0090    0.0000 C   0  0  0  0  0  0  0  0  0  0  0  0
    1.5158    3.3448    0.0000 C   0  0  0  0  0  0  0  0  0  0  0  0
   -4.0332   -0.7120    0.0000 N   0  0  0  0  0  0  0  0  0  0  0  0
   -5.0550   -1.8102    0.0000 C   0  0  0  0  0  0  0  0  0  0  0  0
  1  2  1  0
  2  3  1  0
  3  4  2  0
  4  5  1  0
  5  6  2  0
  6  7  1  0
  7  8  1  0
  8  9  1  0
  9 10  1  0
 10 11  2  0
 11 12  1  0
 12 13  2  0
 13 14  1  0
 15 14  1  1
 15 16  1  0
 16 17  1  0
 17 18  2  0
 17 19  1  0
 19 20  1  0
 20 21  2  0
 13 22  1  0
 22 23  2  0
  6 24  1  0
 24 25  2  0
 25  3  1  0
 23 10  1  0
 20 15  1  0
M  END
> <Identifier>
PIOGLITAZONE

> <hERG>
0

$$$$

     RDKit          2D

 11 11  0  0  0  0  0  0  0  0999 V2000
    2.9943   -2.0538    0.0000 C   0  0  0  0  0  0  0  0  0  0  0  0
    2.9641   -0.5541    0.0000 C   0  0  0  0  0  0  0  0  0  0  0  0
    1.6502    0.1696    0.0000 C   0  0  0  0  0  0  0  0  0  0  0  0
    0.3666   -0.6064    0.0000 C   0  0  0  0  0  0  0  0  0  0  0  0
   -0.9473    0.1173    0.0000 C   0  0  0  0  0  0  0  0  0  0  0  0
   -2.2310   -0.6587    0.0000 C   0  0  0  0  0  0  0  0  0  0  0  0
   -3.5449    0.0650    0.0000 N   0  0  0  0  0  0  0  0  0  0  0  0
   -2.2008   -2.1584    0.0000 S   0  0  0  0  0  0  0  0  0  0  0  0
   -0.9775    1.6170    0.0000 C   0  0  0  0  0  0  0  0  0  0  0  0
    0.3062    2.3930    0.0000 C   0  0  0  0  0  0  0  0  0  0  0  0
    1.6200    1.6693    0.0000 N   0  0  0  0  0  0  0  0  0  0  0  0
  1  2  1  0
  2  3  1  0
  3  4  2  0
  4  5  1  0
  5  6  1  0
  6  7  1  0
  6  8  2  0
  5  9  2  0
  9 10  1  0
 10 11  2  0
 11  3  1  0
M  END
> <Identifier>
ETHIONAMIDE

> <hERG>
0

$$$$

     RDKit          2D

 15 17  0  0  0  0  0  0  0  0999 V2000
    0.0000    2.8000    0.0000 N   0  0  0  0  0  0  0  0  0  0  0  0
   -0.0000    1.3000    0.0000 C   0  0  0  0  0  0  0  0  0  0  0  0
   -1.2990    0.5500    0.0000 C   0  0  0  0  0  0  0  0  0  0  0  0
   -1.2990   -0.9500    0.0000 C   0  0  0  0  0  0  0  0  0  0  0  0
   -0.0000   -1.7000    0.0000 N   0  0  0  0  0  0  0  0  0  0  0  0
    1.2990   -0.9500    0.0000 C   0  0  0  0  0  0  0  0  0  0  0  0
    2.5981   -1.7000    0.0000 C   0  0  0  0  0  0  0  0  0  0  0  0
    3.8971   -0.9500    0.0000 C   0  0  0  0  0  0  0  0  0  0  0  0
    3.8971    0.5500    0.0000 C   0  0  0  0  0  0  0  0  0  0  0  0
    2.5981    1.3000    0.0000 C   0  0  0  0  0  0  0  0  0  0  0  0
    1.2990    0.5500    0.0000 C   0  0  0  0  0  0  0  0  0  0  0  0
   -2.5981   -1.7000    0.0000 C   0  0  0  0  0  0  0  0  0  0  0  0
   -3.8971   -0.9500    0.0000 C   0  0  0  0  0  0  0  0  0  0  0  0
   -3.8971    0.5500    0.0000 C   0  0  0  0  0  0  0  0  0  0  0  0
   -2.5981    1.3000    0.0000 C   0  0  0  0  0  0  0  0  0  0  0  0
  1  2  1  0
  2  3  2  0
  3  4  1  0
  4  5  2  0
  5  6  1  0
  6  7  2  0
  7  8  1  0
  8  9  2  0
  9 10  1  0
 10 11  2  0
  4 12  1  0
 12 13  1  0
 13 14  1  0
 14 15  1  0
 11  2  1  0
 15  3  1  0
 11  6  1  0
M  END
> <Identifier>
TACRINE

> <hERG>
0

$$$$

     RDKit          2D

 22 24  0  0  0  0  0  0  0  0999 V2000
   -6.4952   -2.9491    0.0000 N   0  0  0  0  0  0  0  0  0  0  0  0
   -5.1962   -2.1991    0.0000 C   0  0  0  0  0  0  0  0  0  0  0  0
   -3.8971   -1.4491    0.0000 C   0  0  0  0  0  0  0  0  0  0  0  0
   -3.8971    0.0509    0.0000 C   0  0  0  0  0  0  0  0  0  0  0  0
   -2.5981    0.8009    0.0000 C   0  0  0  0  0  0  0  0  0  0  0  0
   -1.2990    0.0509    0.0000 C   0  0  0  0  0  0  0  0  0  0  0  0
    0.0000    0.8009    0.0000 C   0  0  0  0  0  0  0  0  0  0  0  0
    1.2990    0.0509    0.0000 C   0  0  0  0  0  0  0  0  0  0  0  0
    1.2990   -1.4491    0.0000 C   0  0  0  0  0  0  0  0  0  0  0  0
    2.5981   -2.1991    0.0000 C   0  0  0  0  0  0  0  0  0  0  0  0
    3.8971   -1.4491    0.0000 C   0  0  0  0  0  0  0  0  0  0  0  0
    5.1962   -2.1991    0.0000 C   0  0  0  0  0  0  0  0  0  0  0  0
    6.4952   -2.9491    0.0000 N   0  0  0  0  0  0  0  0  0  0  0  0
    3.8971    0.0509    0.0000 C   0  0  0  0  0  0  0  0  0  0  0  0
    2.5981    0.8009    0.0000 C   0  0  0  0  0  0  0  0  0  0  0  0
   -0.0000    2.3009    0.0000 N   0  0  0  0  0  0  0  0  0  0  0  0
   -1.2135    3.1826    0.0000 C   0  0  0  0  0  0  0  0  0  0  0  0
   -0.7500    4.6092    0.0000 N   0  0  0  0  0  0  0  0  0  0  0  0
    0.7500    4.6092    0.0000 C   0  0  0  0  0  0  0  0  0  0  0  0
    1.2135    3.1826    0.0000 N   0  0  0  0  0  0  0  0  0  0  0  0
   -1.2990   -1.4491    0.0000 C   0  0  0  0  0  0  0  0  0  0  0  0
   -2.5981   -2.1991    0.0000 C   0  0  0  0  0  0  0  0  0  0  0  0
  1  2  3  0
  2  3  1  0
  3  4  2  0
  4  5  1  0
  5  6  2  0
  6  7  1  0
  7  8  1  0
  8  9  2  0
  9 10  1  0
 10 11  2  0
 11 12  1  0
 12 13  3  0
 11 14  1  0
 14 15  2  0
  7 16  1  0
 16 17  1  0
 17 18  2  0
 18 19  1  0
 19 20  2  0
  6 21  1  0
 21 22  2  0
 22  3  1  0
 15  8  1  0
 20 16  1  0
M  END
> <Identifier>
LETROZOLE

> <hERG>
0

$$$$

     RDKit          2D

 22 23  0  0  0  0  0  0  0  0999 V2000
    3.8534    0.4059    0.0000 C   0  0  0  0  0  0  0  0  0  0  0  0
    3.4445   -1.0373    0.0000 C   0  0  0  0  0  0  0  0  0  0  0  0
    3.0356   -2.4805    0.0000 C   0  0  0  0  0  0  0  0  0  0  0  0
    4.8877   -1.4462    0.0000 C   0  0  0  0  0  0  0  0  0  0  0  0
    6.3309   -1.8551    0.0000 N   0  0  0  0  0  0  0  0  0  0  0  0
    2.0013   -0.6284    0.0000 C   0  0  0  0  0  0  0  0  0  0  0  0
    0.9256   -1.6738    0.0000 C   0  0  0  0  0  0  0  0  0  0  0  0
   -0.5176   -1.2649    0.0000 C   0  0  0  0  0  0  0  0  0  0  0  0
   -1.5933   -2.3103    0.0000 C   0  0  0  0  0  0  0  0  0  0  0  0
   -3.0365   -1.9014    0.0000 N   0  0  0  0  0  0  0  0  0  0  0  0
   -4.2156   -2.8286    0.0000 C   0  0  0  0  0  0  0  0  0  0  0  0
   -5.4618   -1.9937    0.0000 N   0  0  0  0  0  0  0  0  0  0  0  0
   -5.0529   -0.5505    0.0000 C   0  0  0  0  0  0  0  0  0  0  0  0
   -3.5540   -0.4935    0.0000 N   0  0  0  0  0  0  0  0  0  0  0  0
   -0.8851    0.1894    0.0000 C   0  0  0  0  0  0  0  0  0  0  0  0
    0.1906    1.2348    0.0000 C   0  0  0  0  0  0  0  0  0  0  0  0
   -0.1768    2.6891    0.0000 C   0  0  0  0  0  0  0  0  0  0  0  0
   -1.6311    2.3216    0.0000 C   0  0  0  0  0  0  0  0  0  0  0  0
    1.2775    3.0566    0.0000 C   0  0  0  0  0  0  0  0  0  0  0  0
   -0.5443    4.1434    0.0000 C   0  0  0  0  0  0  0  0  0  0  0  0
   -0.9118    5.5977    0.0000 N   0  0  0  0  0  0  0  0  0  0  0  0
    1.6338    0.8259    0.0000 C   0  0  0  0  0  0  0  0  0  0  0  0
  1  2  1  0
  2  3  1  0
  2  4  1  0
  4  5  3  0
  2  6  1  0
  6  7  2  0
  7  8  1  0
  8  9  1  0
  9 10  1  0
 10 11  1  0
 11 12  2  0
 12 13  1  0
 13 14  2  0
  8 15  2  0
 15 16  1  0
 16 17  1  0
 17 18  1  0
 17 19  1  0
 17 20  1  0
 20 21  3  0
 16 22  2  0
 22  6  1  0
 14 10  1  0
M  END
> <Identifier>
ANASTROZOLE

> <hERG>
0

$$$$

     RDKit          2D

 22 24  0  0  0  0  0  0  0  0999 V2000
   -6.4631   -1.4652    0.0000 O   0  0  0  0  0  0  0  0  0  0  0  0
   -5.9681   -0.0492    0.0000 C   0  0  0  0  0  0  0  0  0  0  0  0
   -6.9468    1.0874    0.0000 O   0  0  0  0  0  1  0  0  0  0  0  0
   -4.4943    0.2301    0.0000 C   0  0  0  0  0  0  0  0  0  0  0  0
   -3.5156   -0.9066    0.0000 C   0  0  0  0  0  0  0  0  0  0  0  0
   -2.0418   -0.6273    0.0000 C   0  0  0  0  0  0  0  0  0  0  0  0
   -0.9496   -1.6555    0.0000 N   0  0  0  0  0  0  0  0  0  0  0  0
    0.3658   -0.9344    0.0000 C   0  0  0  0  0  0  0  0  0  0  0  0
    1.7222   -1.5747    0.0000 C   0  0  0  0  0  0  0  0  0  0  0  0
    1.8459   -3.0696    0.0000 C   0  0  0  0  0  0  0  0  0  0  0  0
    3.2024   -3.7099    0.0000 C   0  0  0  0  0  0  0  0  0  0  0  0
    4.4352   -2.8554    0.0000 C   0  0  0  0  0  0  0  0  0  0  0  0
    4.3114   -1.3605    0.0000 C   0  0  0  0  0  0  0  0  0  0  0  0
    2.9550   -0.7202    0.0000 C   0  0  0  0  0  0  0  0  0  0  0  0
    0.0865    0.5393    0.0000 C   0  0  0  0  0  0  0  0  0  0  0  0
    1.1146    1.6316    0.0000 C   0  0  0  0  0  0  0  0  0  0  0  0
    2.5746    1.2873    0.0000 C   0  0  0  0  0  0  0  0  0  0  0  0
    3.6027    2.3795    0.0000 C   0  0  0  0  0  0  0  0  0  0  0  0
    3.1709    3.8160    0.0000 C   0  0  0  0  0  0  0  0  0  0  0  0
    1.7109    4.1603    0.0000 C   0  0  0  0  0  0  0  0  0  0  0  0
    0.6828    3.0681    0.0000 C   0  0  0  0  0  0  0  0  0  0  0  0
   -1.4015    0.7291    0.0000 O   0  0  0  0  0  0  0  0  0  0  0  0
  1  2  2  0
  2  3  1  0
  2  4  1  0
  4  5  1  0
  5  6  1  0
  6  7  2  0
  7  8  1  0
  8  9  1  0
  9 10  2  0
 10 11  1  0
 11 12  2  0
 12 13  1  0
 13 14  2  0
  8 15  2  0
 15 16  1  0
 16 17  2  0
 17 18  1  0
 18 19  2  0
 19 20  1  0
 20 21  2  0
 15 22  1  0
 22  6  1  0
 14  9  1  0
 21 16  1  0
M  CHG  1   3  -1
M  END
> <Identifier>
OXAPROZIN

> <hERG>
0

$$$$

     RDKit          2D

 23 25  0  0  0  0  0  0  0  0999 V2000
   -7.5207   -2.8131    0.0000 O   0  0  0  0  0  0  0  0  0  0  0  0
   -6.7601   -1.5202    0.0000 C   0  0  0  0  0  0  0  0  0  0  0  0
   -5.2671   -1.3756    0.0000 C   0  0  0  0  0  0  0  0  0  0  0  0
   -4.9432    0.0890    0.0000 N   0  0  0  0  0  0  0  0  0  0  0  0
   -3.5680    0.6879    0.0000 N   0  0  0  0  0  0  0  0  0  0  0  0
   -2.3617   -0.2037    0.0000 C   0  0  0  0  0  0  0  0  0  0  0  0
   -0.9864    0.3952    0.0000 C   0  0  0  0  0  0  0  0  0  0  0  0
   -0.6626    1.8598    0.0000 C   0  0  0  0  0  0  0  0  0  0  0  0
    0.8304    2.0044    0.0000 C   0  0  0  0  0  0  0  0  0  0  0  0
    1.4293    0.6291    0.0000 C   0  0  0  0  0  0  0  0  0  0  0  0
    2.8939    0.3053    0.0000 C   0  0  0  0  0  0  0  0  0  0  0  0
    3.3458   -1.1251    0.0000 C   0  0  0  0  0  0  0  0  0  0  0  0
    4.8104   -1.4489    0.0000 C   0  0  0  0  0  0  0  0  0  0  0  0
    5.8232   -0.3425    0.0000 C   0  0  0  0  0  0  0  0  0  0  0  0
    7.2878   -0.6663    0.0000 N   0  0  0  0  0  4  0  0  0  0  0  0
    8.3006    0.4401    0.0000 O   0  0  0  0  0  0  0  0  0  0  0  0
    7.7396   -2.0967    0.0000 O   0  0  0  0  0  1  0  0  0  0  0  0
    5.3713    1.0879    0.0000 C   0  0  0  0  0  0  0  0  0  0  0  0
    3.9067    1.4117    0.0000 C   0  0  0  0  0  0  0  0  0  0  0  0
    0.3064   -0.3654    0.0000 O   0  0  0  0  0  0  0  0  0  0  0  0
   -6.2361    0.8496    0.0000 C   0  0  0  0  0  0  0  0  0  0  0  0
   -6.3807    2.3426    0.0000 O   0  0  0  0  0  0  0  0  0  0  0  0
   -7.3590   -0.1450    0.0000 N   0  0  0  0  0  0  0  0  0  0  0  0
  1  2  2  0
  2  3  1  0
  3  4  1  0
  4  5  1  0
  5  6  2  0
  6  7  1  0
  7  8  2  0
  8  9  1  0
  9 10  2  0
 10 11  1  0
 11 12  2  0
 12 13  1  0
 13 14  2  0
 14 15  1  0
 15 16  2  0
 15 17  1  0
 14 18  1  0
 18 19  2  0
 10 20  1  0
  4 21  1  0
 21 22  2  0
 21 23  1  0
 23  2  1  0
 20  7  1  0
 19 11  1  0
M  CHG  2  15   1  17  -1
M  END
> <Identifier>
DANTROLENE

> <hERG>
0

$$$$

     RDKit          2D

 25 29  0  0  0  0  0  0  0  0999 V2000
    7.2037    0.5165    0.0000 C   0  0  0  0  0  0  0  0  0  0  0  0
    5.7117    0.3617    0.0000 C   0  0  0  0  0  0  0  0  0  0  0  0
    4.2197    0.2070    0.0000 C   0  0  0  0  0  0  0  0  0  0  0  0
    4.4046    1.6955    0.0000 O   0  0  0  0  0  0  0  0  0  0  0  0
    4.5296   -1.2607    0.0000 C   0  0  0  0  0  0  0  0  0  0  0  0
    3.2295   -2.0089    0.0000 C   0  0  0  0  0  0  0  0  0  0  0  0
    2.1162   -1.0037    0.0000 C   0  0  0  0  0  0  0  0  0  0  0  0
    0.6242   -1.1585    0.0000 C   0  0  0  0  0  0  0  0  0  0  0  0
    0.0122   -2.5279    0.0000 C   0  0  0  0  0  0  0  0  0  0  0  0
   -1.4798   -2.6827    0.0000 C   0  0  0  0  0  0  0  0  0  0  0  0
   -2.3598   -1.4680    0.0000 C   0  0  0  0  0  0  0  0  0  0  0  0
   -3.8518   -1.6227    0.0000 C   0  0  0  0  0  0  0  0  0  0  0  0
   -4.7318   -0.4080    0.0000 C   0  0  0  0  0  0  0  0  0  0  0  0
   -6.2234   -0.2492    0.0000 O   0  0  0  0  0  0  0  0  0  0  0  0
   -6.5332    1.2185    0.0000 N   0  0  0  0  0  0  0  0  0  0  0  0
   -5.2332    1.9667    0.0000 C   0  0  0  0  0  0  0  0  0  0  0  0
   -4.1198    0.9615    0.0000 C   0  0  0  0  0  0  0  0  0  0  0  0
   -2.6278    1.1162    0.0000 C   0  0  0  0  0  0  0  0  0  0  0  0
   -1.7478   -0.0985    0.0000 C   0  0  0  0  0  0  0  0  0  0  0  0
   -1.1358    1.2710    0.0000 C   0  0  0  0  0  0  0  0  0  0  0  0
   -0.2558    0.0563    0.0000 C   0  0  0  0  0  0  0  0  0  0  0  0
    0.3562    1.4258    0.0000 C   0  0  0  0  0  0  0  0  0  0  0  0
    1.8481    1.5805    0.0000 C   0  0  0  0  0  0  0  0  0  0  0  0
    2.7282    0.3658    0.0000 C   0  0  0  0  0  0  0  0  0  0  0  0
    3.3161    1.7458    0.0000 C   0  0  0  0  0  0  0  0  0  0  0  0
  1  2  3  0
  2  3  1  0
  3  4  1  1
  3  5  1  0
  5  6  1  0
  7  6  1  1
  7  8  1  0
  8  9  1  6
  9 10  1  0
 10 11  1  0
 11 12  2  0
 12 13  1  0
 13 14  1  0
 14 15  1  0
 15 16  2  0
 16 17  1  0
 17 18  1  0
 18 19  1  0
 19 20  1  1
 19 21  1  0
 21 22  1  1
 22 23  1  0
 23 24  1  0
 24 25  1  1
 24  3  1  0
 24  7  1  0
 21  8  1  0
 19 11  1  0
 17 13  2  0
M  END
> <Identifier>
DANAZOL

> <hERG>
0

$$$$

     RDKit          2D

 23 25  0  0  0  0  0  0  0  0999 V2000
   -7.4171    0.7837    0.0000 C   0  0  0  0  0  0  0  0  0  0  0  0
   -6.0224    0.2315    0.0000 C   0  0  0  0  0  0  0  0  0  0  0  0
   -5.6493   -1.2213    0.0000 C   0  0  0  0  0  0  0  0  0  0  0  0
   -4.1523   -1.3155    0.0000 N   0  0  0  0  0  0  0  0  0  0  0  0
   -3.6001    0.0792    0.0000 C   0  0  0  0  0  0  0  0  0  0  0  0
   -2.1472    0.4523    0.0000 N   0  0  0  0  0  0  0  0  0  0  0  0
   -1.0977   -0.6194    0.0000 C   0  0  0  0  0  0  0  0  0  0  0  0
   -1.5011   -2.0642    0.0000 O   0  0  0  0  0  0  0  0  0  0  0  0
    0.3551   -0.2463    0.0000 C   0  0  0  0  0  0  0  0  0  0  0  0
    1.4047   -1.3180    0.0000 C   0  0  0  0  0  0  0  0  0  0  0  0
    1.0013   -2.7628    0.0000 O   0  0  0  0  0  0  0  0  0  0  0  0
    2.8575   -0.9449    0.0000 C   0  0  0  0  0  0  0  0  0  0  0  0
    3.9071   -2.0166    0.0000 C   0  0  0  0  0  0  0  0  0  0  0  0
    5.3599   -1.6435    0.0000 C   0  0  0  0  0  0  0  0  0  0  0  0
    5.7633   -0.1988    0.0000 C   0  0  0  0  0  0  0  0  0  0  0  0
    4.7137    0.8729    0.0000 C   0  0  0  0  0  0  0  0  0  0  0  0
    3.2609    0.4998    0.0000 C   0  0  0  0  0  0  0  0  0  0  0  0
    2.2114    1.5715    0.0000 S   0  0  0  0  0  0  0  0  0  0  0  0
    1.5917    2.9375    0.0000 O   0  0  0  0  0  0  0  0  0  0  0  0
    3.4490    2.4190    0.0000 O   0  0  0  0  0  0  0  0  0  0  0  0
    0.7585    1.1984    0.0000 N   0  0  0  0  0  0  0  0  0  0  0  0
   -0.2910    2.2701    0.0000 C   0  0  0  0  0  0  0  0  0  0  0  0
   -4.7559    1.0353    0.0000 S   0  0  0  0  0  0  0  0  0  0  0  0
  1  2  1  0
  2  3  2  0
  3  4  1  0
  4  5  2  0
  5  6  1  0
  6  7  1  0
  7  8  2  0
  7  9  1  0
  9 10  2  0
 10 11  1  0
 10 12  1  0
 12 13  2  0
 13 14  1  0
 14 15  2  0
 15 16  1  0
 16 17  2  0
 17 18  1  0
 18 19  2  0
 18 20  2  0
 18 21  1  0
 21 22  1  0
  5 23  1  0
 23  2  1  0
 21  9  1  0
 17 12  1  0
M  END
> <Identifier>
MELOXICAM

> <hERG>
0

$$$$

     RDKit          2D

 13 13  0  0  0  0  0  0  0  0999 V2000
    4.7053   -0.5461    0.0000 C   0  0  0  0  0  0  0  0  0  0  0  0
    3.2069   -0.4773    0.0000 C   0  0  0  0  0  0  0  0  0  0  0  0
    2.3980   -1.7405    0.0000 O   0  0  0  0  0  0  0  0  0  0  0  0
    2.5173    0.8549    0.0000 N   0  0  0  0  0  0  0  0  0  0  0  0
    1.0189    0.9238    0.0000 C   0  0  0  0  0  0  0  0  0  0  0  0
    0.1939    2.1765    0.0000 N   0  0  0  0  0  0  0  0  0  0  0  0
   -1.2524    1.7790    0.0000 N   0  0  0  0  0  0  0  0  0  0  0  0
   -1.3213    0.2806    0.0000 C   0  0  0  0  0  0  0  0  0  0  0  0
   -2.5741   -0.5444    0.0000 S   0  0  0  0  0  0  0  0  0  0  0  0
   -3.8268   -1.3695    0.0000 N   0  0  0  0  0  0  0  0  0  0  0  0
   -3.3991    0.7083    0.0000 O   0  0  0  0  0  0  0  0  0  0  0  0
   -1.7491   -1.7972    0.0000 O   0  0  0  0  0  0  0  0  0  0  0  0
    0.0824   -0.2480    0.0000 S   0  0  0  0  0  0  0  0  0  0  0  0
  1  2  1  0
  2  3  2  0
  2  4  1  0
  4  5  1  0
  5  6  2  0
  6  7  1  0
  7  8  2  0
  8  9  1  0
  9 10  1  0
  9 11  2  0
  9 12  2  0
  8 13  1  0
 13  5  1  0
M  END
> <Identifier>
ACETAZOLAMIDE

> <hERG>
0

$$$$

     RDKit          2D

 14 15  0  0  0  0  0  0  0  0999 V2000
   -6.2112    0.3797    0.0000 C   0  0  0  0  0  0  0  0  0  0  0  0
   -5.0203   -0.5324    0.0000 C   0  0  0  0  0  0  0  0  0  0  0  0
   -3.6350    0.0429    0.0000 C   0  0  0  0  0  0  0  0  0  0  0  0
   -2.4442   -0.8691    0.0000 N   0  0  0  0  0  4  0  0  0  0  0  0
   -1.0589   -0.2938    0.0000 C   0  0  0  0  0  0  0  0  0  0  0  0
   -0.8644    1.1935    0.0000 C   0  0  0  0  0  0  0  0  0  0  0  0
    0.5209    1.7688    0.0000 C   0  0  0  0  0  0  0  0  0  0  0  0
    1.7117    0.8568    0.0000 C   0  0  0  0  0  0  0  0  0  0  0  0
    3.1864    1.1315    0.0000 N   0  0  0  0  0  0  0  0  0  0  0  0
    3.9033   -0.1861    0.0000 C   0  0  0  0  0  0  0  0  0  0  0  0
    5.3906   -0.3805    0.0000 N   0  0  0  0  0  0  0  0  0  0  0  0
    2.8718   -1.2751    0.0000 S   0  0  0  0  0  0  0  0  0  0  0  0
    1.5173   -0.6306    0.0000 C   0  0  0  0  0  0  0  0  0  0  0  0
    0.1320   -1.2059    0.0000 C   0  0  0  0  0  0  0  0  0  0  0  0
  1  2  1  0
  2  3  1  0
  3  4  1  0
  5  4  1  1
  5  6  1  0
  6  7  1  0
  7  8  1  0
  8  9  1  0
  9 10  2  0
 10 11  1  0
 10 12  1  0
 12 13  1  0
 13 14  1  0
 14  5  1  0
 13  8  2  0
M  CHG  1   4   1
M  END
> <Identifier>
PRAMIPEXOLE

> <hERG>
0

$$$$

     RDKit          2D

 34 38  0  0  0  0  0  0  0  0999 V2000
    1.9666    2.1313    0.0000 O   0  0  0  0  0  0  0  0  0  0  0  0
    1.6793    0.6591    0.0000 C   0  0  0  0  0  0  0  0  0  0  0  0
    0.2607    0.1718    0.0000 C   0  0  0  0  0  0  0  0  0  0  0  0
   -0.8706    1.1567    0.0000 C   0  0  0  0  0  0  0  0  0  0  0  0
   -2.2893    0.6694    0.0000 C   0  0  0  0  0  0  0  0  0  0  0  0
   -2.5766   -0.8028    0.0000 C   0  0  0  0  0  0  0  0  0  0  0  0
   -3.9952   -1.2902    0.0000 O   0  0  0  0  0  0  0  0  0  0  0  0
   -5.1265   -0.3052    0.0000 C   0  0  0  0  0  0  0  0  0  0  0  0
   -6.5452   -0.7925    0.0000 C   0  0  0  0  0  0  0  0  0  0  0  0
   -7.6765    0.1924    0.0000 N   0  0  0  0  0  4  0  0  0  0  0  0
   -7.3892    1.6646    0.0000 C   0  0  0  0  0  0  0  0  0  0  0  0
   -8.5206    2.6495    0.0000 C   0  0  0  0  0  0  0  0  0  0  0  0
   -9.9392    2.1622    0.0000 C   0  0  0  0  0  0  0  0  0  0  0  0
  -10.2265    0.6900    0.0000 C   0  0  0  0  0  0  0  0  0  0  0  0
   -9.0952   -0.2949    0.0000 C   0  0  0  0  0  0  0  0  0  0  0  0
   -1.4452   -1.7878    0.0000 C   0  0  0  0  0  0  0  0  0  0  0  0
   -0.0266   -1.3005    0.0000 C   0  0  0  0  0  0  0  0  0  0  0  0
    2.8107   -0.3258    0.0000 C   0  0  0  0  0  0  0  0  0  0  0  0
    4.2725    0.0105    0.0000 C   0  0  0  0  0  0  0  0  0  0  0  0
    4.8596    1.3908    0.0000 C   0  0  0  0  0  0  0  0  0  0  0  0
    6.3485    1.5726    0.0000 C   0  0  0  0  0  0  0  0  0  0  0  0
    6.9357    2.9529    0.0000 C   0  0  0  0  0  0  0  0  0  0  0  0
    6.0338    4.1515    0.0000 C   0  0  0  0  0  0  0  0  0  0  0  0
    6.6209    5.5318    0.0000 O   0  0  0  0  0  0  0  0  0  0  0  0
    4.5449    3.9698    0.0000 C   0  0  0  0  0  0  0  0  0  0  0  0
    3.9578    2.5895    0.0000 C   0  0  0  0  0  0  0  0  0  0  0  0
    5.0441   -1.2758    0.0000 S   0  0  0  0  0  0  0  0  0  0  0  0
    4.0592   -2.4071    0.0000 C   0  0  0  0  0  0  0  0  0  0  0  0
    4.2409   -3.8961    0.0000 C   0  0  0  0  0  0  0  0  0  0  0  0
    3.0423   -4.7979    0.0000 C   0  0  0  0  0  0  0  0  0  0  0  0
    3.2240   -6.2869    0.0000 O   0  0  0  0  0  0  0  0  0  0  0  0
    1.6619   -4.2108    0.0000 C   0  0  0  0  0  0  0  0  0  0  0  0
    1.4802   -2.7219    0.0000 C   0  0  0  0  0  0  0  0  0  0  0  0
    2.6788   -1.8200    0.0000 C   0  0  0  0  0  0  0  0  0  0  0  0
  1  2  2  0
  2  3  1  0
  3  4  2  0
  4  5  1  0
  5  6  2  0
  6  7  1  0
  7  8  1  0
  8  9  1  0
  9 10  1  0
 10 11  1  0
 11 12  1  0
 12 13  1  0
 13 14  1  0
 14 15  1  0
  6 16  1  0
 16 17  2  0
  2 18  1  0
 18 19  2  0
 19 20  1  0
 20 21  2  0
 21 22  1  0
 22 23  2  0
 23 24  1  0
 23 25  1  0
 25 26  2  0
 19 27  1  0
 27 28  1  0
 28 29  2  0
 29 30  1  0
 30 31  1  0
 30 32  2  0
 32 33  1  0
 33 34  2  0
 17  3  1  0
 34 18  1  0
 15 10  1  0
 26 20  1  0
 34 28  1  0
M  CHG  1  10   1
M  END
> <Identifier>
RALOXIFENE

> <hERG>
0

$$$$

     RDKit          2D

 10  9  0  0  0  0  0  0  0  0999 V2000
    2.1731   -1.6094    0.0000 N   0  0  0  0  0  0  0  0  0  0  0  0
    1.9806   -0.1218    0.0000 C   0  0  0  0  0  0  0  0  0  0  0  0
    0.5960    0.4553    0.0000 C   0  0  0  0  0  0  0  0  0  0  0  0
   -0.5960   -0.4553    0.0000 C   0  0  0  0  0  0  0  0  0  0  0  0
   -1.9806    0.1218    0.0000 C   0  0  0  0  0  0  0  0  0  0  0  0
   -2.1731    1.6094    0.0000 N   0  0  0  0  0  0  0  0  0  0  0  0
   -3.1726   -0.7888    0.0000 N   0  0  0  0  0  0  0  0  0  0  0  0
   -4.5572   -0.2117    0.0000 O   0  0  0  0  0  0  0  0  0  0  0  0
    3.1726    0.7888    0.0000 N   0  0  0  0  0  0  0  0  0  0  0  0
    4.5572    0.2117    0.0000 O   0  0  0  0  0  0  0  0  0  0  0  0
  1  2  1  0
  2  3  1  0
  3  4  1  0
  4  5  1  0
  5  6  1  0
  5  7  2  0
  7  8  1  0
  2  9  2  0
  9 10  1  0
M  END
> <Identifier>
C(CC(=NO)N)C(=NO)N

> <hERG>
0

$$$$

     RDKit          2D

 19 20  0  0  0  0  0  0  0  0999 V2000
   -3.8971   -3.0395    0.0000 N   0  0  0  0  0  0  0  0  0  0  0  0
   -3.8971   -1.5395    0.0000 C   0  0  0  0  0  0  0  0  0  0  0  0
   -5.1962   -0.7895    0.0000 N   0  0  0  0  0  0  0  0  0  0  0  0
   -5.1962    0.7105    0.0000 C   0  0  0  0  0  0  0  0  0  0  0  0
   -6.4952    1.4605    0.0000 N   0  0  0  0  0  0  0  0  0  0  0  0
   -3.8971    1.4605    0.0000 N   0  0  0  0  0  0  0  0  0  0  0  0
   -2.5981    0.7105    0.0000 C   0  0  0  0  0  0  0  0  0  0  0  0
   -1.2990    1.4605    0.0000 C   0  0  0  0  0  0  0  0  0  0  0  0
   -0.0000    0.7105    0.0000 C   0  0  0  0  0  0  0  0  0  0  0  0
    1.2990    1.4605    0.0000 C   0  0  0  0  0  0  0  0  0  0  0  0
    2.5981    0.7105    0.0000 C   0  0  0  0  0  0  0  0  0  0  0  0
    2.5981   -0.7895    0.0000 N   0  0  0  0  0  0  0  0  0  0  0  0
    3.8971   -1.5395    0.0000 C   0  0  0  0  0  0  0  0  0  0  0  0
    3.8971   -3.0395    0.0000 N   0  0  0  0  0  0  0  0  0  0  0  0
    5.1962   -0.7895    0.0000 N   0  0  0  0  0  0  0  0  0  0  0  0
    5.1962    0.7105    0.0000 C   0  0  0  0  0  0  0  0  0  0  0  0
    6.4952    1.4605    0.0000 N   0  0  0  0  0  0  0  0  0  0  0  0
    3.8971    1.4605    0.0000 N   0  0  0  0  0  0  0  0  0  0  0  0
   -2.5981   -0.7895    0.0000 N   0  0  0  0  0  0  0  0  0  0  0  0
  1  2  1  0
  2  3  2  0
  3  4  1  0
  4  5  1  0
  4  6  2  0
  6  7  1  0
  7  8  1  0
  8  9  1  0
  9 10  1  0
 10 11  1  0
 11 12  2  0
 12 13  1  0
 13 14  1  0
 13 15  2  0
 15 16  1  0
 16 17  1  0
 16 18  2  0
  7 19  2  0
 19  2  1  0
 18 11  1  0
M  END
> <Identifier>
C(CC1=NC(=NC(=N1)N)N)CC2=NC(=NC(=N2)N)N

> <hERG>
0

$$$$

     RDKit          2D

 20 21  0  0  0  0  0  0  0  0999 V2000
   -5.4065   -2.9081    0.0000 N   0  0  0  0  0  0  0  0  0  0  0  0
   -5.0451   -1.4523    0.0000 C   0  0  0  0  0  0  0  0  0  0  0  0
   -6.1252   -0.4114    0.0000 N   0  0  0  0  0  0  0  0  0  0  0  0
   -5.7638    1.0444    0.0000 C   0  0  0  0  0  0  0  0  0  0  0  0
   -6.8439    2.0853    0.0000 N   0  0  0  0  0  0  0  0  0  0  0  0
   -4.3224    1.4594    0.0000 N   0  0  0  0  0  0  0  0  0  0  0  0
   -3.2423    0.4185    0.0000 C   0  0  0  0  0  0  0  0  0  0  0  0
   -1.8008    0.8334    0.0000 C   0  0  0  0  0  0  0  0  0  0  0  0
   -0.7207   -0.2075    0.0000 C   0  0  0  0  0  0  0  0  0  0  0  0
    0.7207    0.2075    0.0000 C   0  0  0  0  0  0  0  0  0  0  0  0
    1.8008   -0.8334    0.0000 C   0  0  0  0  0  0  0  0  0  0  0  0
    3.2423   -0.4185    0.0000 C   0  0  0  0  0  0  0  0  0  0  0  0
    4.3224   -1.4594    0.0000 N   0  0  0  0  0  0  0  0  0  0  0  0
    5.7638   -1.0444    0.0000 C   0  0  0  0  0  0  0  0  0  0  0  0
    6.8439   -2.0853    0.0000 N   0  0  0  0  0  0  0  0  0  0  0  0
    6.1252    0.4114    0.0000 N   0  0  0  0  0  0  0  0  0  0  0  0
    5.0451    1.4523    0.0000 C   0  0  0  0  0  0  0  0  0  0  0  0
    5.4065    2.9081    0.0000 N   0  0  0  0  0  0  0  0  0  0  0  0
    3.6037    1.0373    0.0000 N   0  0  0  0  0  0  0  0  0  0  0  0
   -3.6037   -1.0373    0.0000 N   0  0  0  0  0  0  0  0  0  0  0  0
  1  2  1  0
  2  3  2  0
  3  4  1  0
  4  5  1  0
  4  6  2  0
  6  7  1  0
  7  8  1  0
  8  9  1  0
  9 10  1  0
 10 11  1  0
 11 12  1  0
 12 13  2  0
 13 14  1  0
 14 15  1  0
 14 16  2  0
 16 17  1  0
 17 18  1  0
 17 19  2  0
  7 20  2  0
 20  2  1  0
 19 12  1  0
M  END
> <Identifier>
C(CCC1=NC(=NC(=N1)N)N)CC2=NC(=NC(=N2)N)N

> <hERG>
0

$$$$

     RDKit          2D

 10  9  0  0  0  0  0  0  0  0999 V2000
   -1.4166    1.8843    0.0000 N   0  0  0  0  0  0  0  0  0  0  0  0
   -1.4265    0.3844    0.0000 C   0  0  0  0  0  0  0  0  0  0  0  0
   -0.1324   -0.3741    0.0000 C   0  0  0  0  0  0  0  0  0  0  0  0
    1.1716    0.3673    0.0000 C   0  0  0  0  0  0  0  0  0  0  0  0
    2.4657   -0.3912    0.0000 C   0  0  0  0  0  0  0  0  0  0  0  0
    3.7696    0.3503    0.0000 C   0  0  0  0  0  0  0  0  0  0  0  0
    5.0637   -0.4082    0.0000 O   0  0  0  0  0  0  0  0  0  0  0  0
   -2.7304   -0.3571    0.0000 C   0  0  0  0  0  0  0  0  0  0  0  0
   -2.7402   -1.8571    0.0000 O   0  0  0  0  0  0  0  0  0  0  0  0
   -4.0245    0.4014    0.0000 O   0  0  0  0  0  0  0  0  0  0  0  0
  2  1  1  6
  2  3  1  0
  3  4  1  0
  4  5  1  0
  5  6  1  0
  6  7  1  0
  2  8  1  0
  8  9  2  0
  8 10  1  0
M  END
> <Identifier>
C(CCO)CC(C(=O)O)N

> <hERG>
0

$$$$

     RDKit          2D

 21 19  0  0  0  0  0  0  0  0999 V2000
    4.8458    0.8403    0.0000 O   0  0  0  0  0  0  0  0  0  0  0  0
    4.5192   -0.6238    0.0000 C   0  0  0  0  0  0  0  0  0  0  0  0
    5.6238   -1.6386    0.0000 O   0  0  0  0  0  0  0  0  0  0  0  0
    3.0881   -1.0730    0.0000 C   0  0  0  0  0  0  0  0  0  0  0  0
    1.9835   -0.0582    0.0000 N   0  0  0  0  0  0  0  0  0  0  0  0
    0.5523   -0.5074    0.0000 C   0  0  0  0  0  0  0  0  0  0  0  0
   -0.5523    0.5074    0.0000 C   0  0  0  0  0  0  0  0  0  0  0  0
   -1.9835    0.0582    0.0000 N   0  0  0  0  0  0  0  0  0  0  0  0
   -3.0881    1.0730    0.0000 C   0  0  0  0  0  0  0  0  0  0  0  0
   -4.5192    0.6238    0.0000 C   0  0  0  0  0  0  0  0  0  0  0  0
   -4.8458   -0.8403    0.0000 O   0  0  0  0  0  0  0  0  0  0  0  0
   -5.6238    1.6386    0.0000 O   0  0  0  0  0  0  0  0  0  0  0  0
   -2.3100   -1.4058    0.0000 C   0  0  0  0  0  0  0  0  0  0  0  0
   -1.2054   -2.4207    0.0000 C   0  0  0  0  0  0  0  0  0  0  0  0
    0.2258   -1.9714    0.0000 O   0  0  0  0  0  0  0  0  0  0  0  0
   -1.5319   -3.8847    0.0000 O   0  0  0  0  0  0  0  0  0  0  0  0
    2.3100    1.4058    0.0000 C   0  0  0  0  0  0  0  0  0  0  0  0
    1.2054    2.4207    0.0000 C   0  0  0  0  0  0  0  0  0  0  0  0
   -0.2258    1.9714    0.0000 O   0  0  0  0  0  0  0  0  0  0  0  0
    1.5319    3.8847    0.0000 O   0  0  0  0  0  0  0  0  0  0  0  0
    0.0000    4.8847    0.0000 Cu  0  0  0  0  0 15  0  0  0  0  0  0
  1  2  2  0
  2  3  1  0
  2  4  1  0
  4  5  1  0
  5  6  1  0
  6  7  1  0
  7  8  1  0
  8  9  1  0
  9 10  1  0
 10 11  2  0
 10 12  1  0
  8 13  1  0
 13 14  1  0
 14 15  2  0
 14 16  1  0
  5 17  1  0
 17 18  1  0
 18 19  2  0
 18 20  1  0
M  CHG  1  21   2
M  END
> <Identifier>
C(CN(CC(=O)O)CC(=O)O)N(CC(=O)O)CC(=O)O.[Cu+2]

> <hERG>
0

$$$$

     RDKit          2D

 21 19  0  0  0  0  0  0  0  0999 V2000
    4.8458    0.8403    0.0000 O   0  0  0  0  0  0  0  0  0  0  0  0
    4.5192   -0.6238    0.0000 C   0  0  0  0  0  0  0  0  0  0  0  0
    5.6238   -1.6386    0.0000 O   0  0  0  0  0  0  0  0  0  0  0  0
    3.0881   -1.0730    0.0000 C   0  0  0  0  0  0  0  0  0  0  0  0
    1.9835   -0.0582    0.0000 N   0  0  0  0  0  0  0  0  0  0  0  0
    0.5523   -0.5074    0.0000 C   0  0  0  0  0  0  0  0  0  0  0  0
   -0.5523    0.5074    0.0000 C   0  0  0  0  0  0  0  0  0  0  0  0
   -1.9835    0.0582    0.0000 N   0  0  0  0  0  0  0  0  0  0  0  0
   -3.0881    1.0730    0.0000 C   0  0  0  0  0  0  0  0  0  0  0  0
   -4.5192    0.6238    0.0000 C   0  0  0  0  0  0  0  0  0  0  0  0
   -4.8458   -0.8403    0.0000 O   0  0  0  0  0  0  0  0  0  0  0  0
   -5.6238    1.6386    0.0000 O   0  0  0  0  0  0  0  0  0  0  0  0
   -2.3100   -1.4058    0.0000 C   0  0  0  0  0  0  0  0  0  0  0  0
   -1.2054   -2.4207    0.0000 C   0  0  0  0  0  0  0  0  0  0  0  0
    0.2258   -1.9714    0.0000 O   0  0  0  0  0  0  0  0  0  0  0  0
   -1.5319   -3.8847    0.0000 O   0  0  0  0  0  0  0  0  0  0  0  0
    2.3100    1.4058    0.0000 C   0  0  0  0  0  0  0  0  0  0  0  0
    1.2054    2.4207    0.0000 C   0  0  0  0  0  0  0  0  0  0  0  0
   -0.2258    1.9714    0.0000 O   0  0  0  0  0  0  0  0  0  0  0  0
    1.5319    3.8847    0.0000 O   0  0  0  0  0  0  0  0  0  0  0  0
    0.0000    4.8847    0.0000 Mn  0  0  0  0  0 15  0  0  0  0  0  0
  1  2  2  0
  2  3  1  0
  2  4  1  0
  4  5  1  0
  5  6  1  0
  6  7  1  0
  7  8  1  0
  8  9  1  0
  9 10  1  0
 10 11  2  0
 10 12  1  0
  8 13  1  0
 13 14  1  0
 14 15  2  0
 14 16  1  0
  5 17  1  0
 17 18  1  0
 18 19  2  0
 18 20  1  0
M  CHG  1  21   2
M  END
> <Identifier>
C(CN(CC(=O)O)CC(=O)O)N(CC(=O)O)CC(=O)O.[Mn+2]

> <hERG>
0

$$$$

     RDKit          2D

  7  6  0  0  0  0  0  0  0  0999 V2000
   -3.5140    0.3095    0.0000 N   0  0  0  0  0  0  0  0  0  0  0  0
   -2.2602   -0.5139    0.0000 C   0  0  0  0  0  0  0  0  0  0  0  0
   -0.9202    0.1603    0.0000 C   0  0  0  0  0  0  0  0  0  0  0  0
    0.3336   -0.6631    0.0000 N   0  0  0  0  0  0  0  0  0  0  0  0
    1.6736    0.0110    0.0000 C   0  0  0  0  0  0  0  0  0  0  0  0
    1.7598    1.5085    0.0000 S   0  0  0  0  0  0  0  0  0  0  0  0
    2.9274   -0.8124    0.0000 S   0  0  0  0  0  0  0  0  0  0  0  0
  1  2  1  0
  2  3  1  0
  3  4  1  0
  4  5  1  0
  5  6  2  0
  5  7  1  0
M  END
> <Identifier>
C(CNC(=S)S)N

> <hERG>
0

$$$$

     RDKit          2D

 10  9  0  0  0  0  0  0  0  0999 V2000
    3.4483   -1.4737    0.0000 O   0  0  0  0  0  0  0  0  0  0  0  0
    3.2691    0.0155    0.0000 C   0  0  0  0  0  0  0  0  0  0  0  0
    4.4693    0.9153    0.0000 O   0  0  0  0  0  0  0  0  0  0  0  0
    1.8898    0.6050    0.0000 C   0  0  0  0  0  0  0  0  0  0  0  0
    0.6897   -0.2947    0.0000 C   0  0  0  0  0  0  0  0  0  0  0  0
   -0.6897    0.2947    0.0000 N   0  0  0  0  0  0  0  0  0  0  0  0
   -1.8898   -0.6050    0.0000 C   0  0  0  0  0  0  0  0  0  0  0  0
   -3.2691   -0.0155    0.0000 C   0  0  0  0  0  0  0  0  0  0  0  0
   -3.4483    1.4737    0.0000 O   0  0  0  0  0  0  0  0  0  0  0  0
   -4.4693   -0.9153    0.0000 O   0  0  0  0  0  0  0  0  0  0  0  0
  1  2  2  0
  2  3  1  0
  2  4  1  0
  4  5  1  0
  5  6  1  0
  6  7  1  0
  7  8  1  0
  8  9  2  0
  8 10  1  0
M  END
> <Identifier>
C(CNCC(=O)O)C(=O)O

> <hERG>
0

$$$$

     RDKit          2D

  9  8  0  0  0  0  0  0  0  0999 V2000
    4.7932   -0.2311    0.0000 N   0  0  0  0  0  0  0  0  0  0  0  0
    3.4424    0.4213    0.0000 C   0  0  0  0  0  0  0  0  0  0  0  0
    2.2021   -0.4223    0.0000 C   0  0  0  0  0  0  0  0  0  0  0  0
    0.8514    0.2300    0.0000 N   0  0  0  0  0  0  0  0  0  0  0  0
   -0.3889   -0.6136    0.0000 C   0  0  0  0  0  0  0  0  0  0  0  0
   -1.7396    0.0387    0.0000 C   0  0  0  0  0  0  0  0  0  0  0  0
   -1.8501    1.5346    0.0000 O   0  0  0  0  0  0  0  0  0  0  0  0
   -2.9799   -0.8049    0.0000 C   0  0  0  0  0  0  0  0  0  0  0  0
   -4.3306   -0.1526    0.0000 O   0  0  0  0  0  0  0  0  0  0  0  0
  1  2  1  0
  2  3  1  0
  3  4  1  0
  4  5  1  0
  5  6  1  0
  6  7  1  6
  6  8  1  0
  8  9  1  0
M  END
> <Identifier>
C(CNCC(CO)O)N

> <hERG>
0

$$$$

     RDKit          2D

  9  9  0  0  0  0  0  0  0  0999 V2000
    1.4216   -2.2739    0.0000 N   0  0  0  0  0  0  0  0  0  0  0  0
    1.3339   -0.7765    0.0000 C   0  0  0  0  0  0  0  0  0  0  0  0
    2.4938    0.1746    0.0000 N   0  0  0  0  0  0  0  0  0  0  0  0
    1.9477    1.5717    0.0000 N   0  0  0  0  0  0  0  0  0  0  0  0
    0.4503    1.4840    0.0000 N   0  0  0  0  0  0  0  0  0  0  0  0
    0.0709    0.0327    0.0000 N   0  0  0  0  0  0  0  0  0  0  0  0
   -1.3261   -0.5134    0.0000 C   0  0  0  0  0  0  0  0  0  0  0  0
   -2.4976    0.4234    0.0000 C   0  0  0  0  0  0  0  0  0  0  0  0
   -3.8946   -0.1227    0.0000 O   0  0  0  0  0  0  0  0  0  0  0  0
  1  2  1  0
  2  3  2  0
  3  4  1  0
  4  5  2  0
  5  6  1  0
  6  7  1  0
  7  8  1  0
  8  9  1  0
  6  2  1  0
M  END
> <Identifier>
C(CO)N1C(=NN=N1)N

> <hERG>
0

$$$$

     RDKit          2D

  9  8  0  0  0  0  0  0  0  0999 V2000
   -4.8948    0.3895    0.0000 N   0  0  0  0  0  0  0  0  0  0  0  0
   -3.6312   -0.4188    0.0000 C   0  0  0  0  0  0  0  0  0  0  0  0
   -2.2994    0.2714    0.0000 C   0  0  0  0  0  0  0  0  0  0  0  0
   -1.0358   -0.5368    0.0000 S   0  0  0  0  0  0  0  0  0  0  0  0
    0.2960    0.1534    0.0000 C   0  0  0  0  0  0  0  0  0  0  0  0
    1.5596   -0.6549    0.0000 C   0  0  0  0  0  0  0  0  0  0  0  0
    2.8913    0.0353    0.0000 C   0  0  0  0  0  0  0  0  0  0  0  0
    2.9595    1.5338    0.0000 O   0  0  0  0  0  0  0  0  0  0  0  0
    4.1550   -0.7729    0.0000 O   0  0  0  0  0  0  0  0  0  0  0  0
  1  2  1  0
  2  3  1  0
  3  4  1  0
  4  5  1  0
  5  6  1  0
  6  7  1  0
  7  8  2  0
  7  9  1  0
M  END
> <Identifier>
C(CSCCN)C(=O)O

> <hERG>
0

$$$$

     RDKit          2D

 10  9  0  0  0  0  0  0  0  0999 V2000
    4.5551    0.4335    0.0000 N   0  0  0  0  0  0  0  0  0  0  0  0
    3.1346    0.9152    0.0000 C   0  0  0  0  0  0  0  0  0  0  0  0
    2.0071   -0.0741    0.0000 C   0  0  0  0  0  0  0  0  0  0  0  0
    0.5866    0.4077    0.0000 S   0  0  0  0  0  0  0  0  0  0  0  0
   -0.5409   -0.5816    0.0000 S   0  0  0  0  0  0  0  0  0  0  0  0
    0.4484   -1.7091    0.0000 O   0  0  0  0  0  0  0  0  0  0  0  0
   -1.6684   -1.5709    0.0000 O   0  0  0  0  0  0  0  0  0  0  0  0
   -1.5303    0.5459    0.0000 C   0  0  0  0  0  0  0  0  0  0  0  0
   -3.0014    0.2529    0.0000 C   0  0  0  0  0  0  0  0  0  0  0  0
   -3.9907    1.3804    0.0000 N   0  0  0  0  0  0  0  0  0  0  0  0
  1  2  1  0
  2  3  1  0
  3  4  1  0
  4  5  1  0
  5  6  2  0
  5  7  2  0
  5  8  1  0
  8  9  1  0
  9 10  1  0
M  END
> <Identifier>
C(CSS(=O)(=O)CCN)N

> <hERG>
0

$$$$

     RDKit          2D

 13 13  0  0  0  0  0  0  0  0999 V2000
   -3.8285    0.0263    0.0000 N   0  0  0  0  0  0  0  0  0  0  0  0
   -2.3357    0.1727    0.0000 C   0  0  0  0  0  0  0  0  0  0  0  0
   -1.7160    1.5387    0.0000 N   0  0  0  0  0  0  0  0  0  0  0  0
   -0.2231    1.6850    0.0000 C   0  0  0  0  0  0  0  0  0  0  0  0
    0.3966    3.0510    0.0000 N   0  0  0  0  0  0  0  0  0  0  0  0
    0.6500    0.4653    0.0000 C   0  0  0  0  0  0  0  0  0  0  0  0
    2.1429    0.6117    0.0000 N   0  0  0  0  0  0  0  0  0  0  0  0
    3.0160   -0.6080    0.0000 C   0  0  0  0  0  0  0  0  0  0  0  0
    4.5089   -0.4617    0.0000 O   0  0  0  0  0  0  0  0  0  0  0  0
    0.0303   -0.9007    0.0000 C   0  0  0  0  0  0  0  0  0  0  0  0
    0.9035   -2.1203    0.0000 N   0  0  0  0  0  0  0  0  0  0  0  0
   -1.4625   -1.0470    0.0000 N   0  0  0  0  0  0  0  0  0  0  0  0
   -2.0822   -2.4130    0.0000 O   0  0  0  0  0  0  0  0  0  0  0  0
  1  2  2  0
  2  3  1  0
  3  4  2  0
  4  5  1  0
  4  6  1  0
  6  7  1  0
  7  8  1  0
  8  9  1  0
  6 10  2  0
 10 11  1  0
 10 12  1  0
 12 13  1  0
 12  2  1  0
M  END
> <Identifier>
C(NC1=C(N(C(=N)N=C1N)O)N)O

> <hERG>
0

$$$$

     RDKit          2D

 20 18  0  0  0  0  0  0  0  0999 V2000
   -4.2168    1.6341    0.0000 O   0  0  0  0  0  0  0  0  0  0  0  0
   -4.3203    0.1377    0.0000 C   0  0  0  0  0  0  0  0  0  0  0  0
   -5.6679   -0.5210    0.0000 O   0  0  0  0  0  0  0  0  0  0  0  0
   -3.0760   -0.7001    0.0000 C   0  0  0  0  0  0  0  0  0  0  0  0
   -1.7284   -0.0415    0.0000 C   0  0  0  0  0  0  0  0  0  0  0  0
   -0.4841   -0.8792    0.0000 C   0  0  0  0  0  0  0  0  0  0  0  0
   -0.5875   -2.3757    0.0000 O   0  0  0  0  0  0  0  0  0  0  0  0
    0.8635   -0.2206    0.0000 C   0  0  0  0  0  0  0  0  0  0  0  0
    2.0417   -1.1490    0.0000 S   0  0  0  0  0  0  0  0  0  0  0  0
    2.7003   -2.4966    0.0000 O   0  0  0  0  0  0  0  0  0  0  0  0
    0.8744   -2.0910    0.0000 O   0  0  0  0  0  0  0  0  0  0  0  0
    3.5021   -0.8067    0.0000 O   0  0  0  0  0  0  0  0  0  0  0  0
    4.1451    0.5485    0.0000 C   0  0  0  0  0  0  0  0  0  0  0  0
    3.4864    1.8961    0.0000 C   0  0  0  0  0  0  0  0  0  0  0  0
    2.0221    2.2214    0.0000 O   0  0  0  0  0  0  0  0  0  0  0  0
    0.8548    1.2794    0.0000 S   0  0  0  0  0  0  0  0  0  0  0  0
   -0.6056    0.9371    0.0000 O   0  0  0  0  0  0  0  0  0  0  0  0
    0.1962    2.6271    0.0000 O   0  0  0  0  0  0  0  0  0  0  0  0
    0.0000    4.6271    0.0000 H   0  0  0  0  0 15  0  0  0  0  0  0
    0.0000    3.6271    0.0000 Na  0  0  0  0  0 15  0  0  0  0  0  0
  1  2  2  0
  2  3  1  0
  2  4  1  0
  4  5  1  0
  5  6  1  0
  6  7  1  0
  6  8  2  0
  8  9  1  0
  9 10  2  0
  9 11  2  0
  9 12  1  0
 12 13  1  0
 13 14  1  0
 14 15  1  0
 15 16  1  0
 16 17  2  0
 16 18  2  0
 16  8  1  0
M  CHG  2  19  -1  20   1
M  END
> <Identifier>
nan

> <hERG>
0

$$$$

     RDKit          2D

 29 30  0  0  0  0  0  0  0  0999 V2000
   -4.4386    3.6010    0.0000 C   0  0  0  0  0  0  0  0  0  0  0  0
   -4.7393    2.1314    0.0000 C   0  0  0  0  0  0  0  0  0  0  0  0
   -3.6170    1.1362    0.0000 C   0  0  0  0  0  0  0  0  0  0  0  0
   -4.6122    0.0139    0.0000 O   0  0  0  0  0  0  0  0  0  0  0  0
   -2.6218    2.2585    0.0000 C   0  0  0  0  0  0  0  0  0  0  0  0
   -1.1523    1.9578    0.0000 O   0  0  0  0  0  0  0  0  0  0  0  0
   -3.0962    3.6816    0.0000 O   0  0  0  0  0  0  0  0  0  0  0  0
   -2.4947    0.1410    0.0000 C   0  0  0  0  0  0  0  0  0  0  0  0
   -1.0717    0.6154    0.0000 C   0  0  0  0  0  0  0  0  0  0  0  0
    0.0507   -0.3798    0.0000 C   0  0  0  0  0  0  0  0  0  0  0  0
   -0.2500   -1.8494    0.0000 N   0  0  0  0  0  0  0  0  0  0  0  0
   -1.6731   -2.3237    0.0000 C   0  0  0  0  0  0  0  0  0  0  0  0
   -1.9738   -3.7933    0.0000 O   0  0  0  0  0  0  0  0  0  0  0  0
   -2.7954   -1.3285    0.0000 C   0  0  0  0  0  0  0  0  0  0  0  0
   -4.2184   -1.8029    0.0000 C   0  0  0  0  0  0  0  0  0  0  0  0
   -4.5191   -3.2724    0.0000 O   0  0  0  0  0  0  0  0  0  0  0  0
    1.0547   -2.5895    0.0000 C   0  0  0  0  0  0  0  0  0  0  0  0
    2.1617   -1.5773    0.0000 C   0  0  0  0  0  0  0  0  0  0  0  0
    3.6546   -1.7228    0.0000 C   0  0  0  0  0  0  0  0  0  0  0  0
    4.5271   -0.5026    0.0000 C   0  0  0  0  0  0  0  0  0  0  0  0
    6.0200   -0.6480    0.0000 C   0  0  0  0  0  0  0  0  0  0  0  0
    6.8924    0.5722    0.0000 C   0  0  0  0  0  0  0  0  0  0  0  0
    6.2719    1.9378    0.0000 C   0  0  0  0  0  0  0  0  0  0  0  0
    4.7790    2.0833    0.0000 C   0  0  0  0  0  0  0  0  0  0  0  0
    3.9066    0.8631    0.0000 C   0  0  0  0  0  0  0  0  0  0  0  0
    2.4136    1.0085    0.0000 N   0  0  0  0  0  0  0  0  0  0  0  0
    1.5412   -0.2117    0.0000 C   0  0  0  0  0  0  0  0  0  0  0  0
    0.0000    5.6816    0.0000 H   0  0  0  0  0 15  0  0  0  0  0  0
    0.0000    4.6816    0.0000 Na  0  0  0  0  0 15  0  0  0  0  0  0
  1  2  1  0
  2  3  1  0
  3  4  1  6
  3  5  1  0
  5  6  2  0
  5  7  1  0
  3  8  1  0
  8  9  1  0
  9 10  2  0
 10 11  1  0
 11 12  1  0
 12 13  2  0
 12 14  1  0
 14 15  1  0
 15 16  1  0
 11 17  1  0
 17 18  1  0
 18 19  2  0
 19 20  1  0
 20 21  2  0
 21 22  1  0
 22 23  2  0
 23 24  1  0
 24 25  2  0
 25 26  1  0
 26 27  2  0
 14  8  2  0
 27 18  1  0
 27 10  1  0
 25 20  1  0
M  CHG  2  28  -1  29   1
M  END
> <Identifier>
nan

> <hERG>
0

$$$$

     RDKit          2D

 10  9  0  0  0  0  0  0  0  0999 V2000
    5.5977   -0.7408    0.0000 C   0  0  0  0  0  0  0  0  0  0  0  0
    4.2875   -0.0104    0.0000 C   0  0  0  0  0  0  0  0  0  0  0  0
    2.9773    0.7199    0.0000 C   0  0  0  0  0  0  0  0  0  0  0  0
    1.6897   -0.0496    0.0000 O   0  0  0  0  0  0  0  0  0  0  0  0
    0.3795    0.6808    0.0000 C   0  0  0  0  0  0  0  0  0  0  0  0
   -0.9081   -0.0887    0.0000 C   0  0  0  0  0  0  0  0  0  0  0  0
   -2.2183    0.6417    0.0000 C   0  0  0  0  0  0  0  0  0  0  0  0
   -3.5059   -0.1278    0.0000 C   0  0  0  0  0  0  0  0  0  0  0  0
   -3.4833   -1.6277    0.0000 O   0  0  0  0  0  0  0  0  0  0  0  0
   -4.8161    0.6025    0.0000 O   0  0  0  0  0  0  0  0  0  0  0  0
  1  2  3  0
  2  3  1  0
  3  4  1  0
  4  5  1  0
  5  6  1  0
  6  7  1  0
  7  8  1  0
  8  9  2  0
  8 10  1  0
M  END
> <Identifier>
nan

> <hERG>
0

$$$$

     RDKit          2D

 14 15  0  0  0  0  0  0  0  0999 V2000
    6.3104   -1.2012    0.0000 C   0  0  0  0  0  0  0  0  0  0  0  0
    4.8299   -0.9598    0.0000 C   0  0  0  0  0  0  0  0  0  0  0  0
    3.3495   -0.7184    0.0000 C   0  0  0  0  0  0  0  0  0  0  0  0
    2.8183    0.6844    0.0000 S   0  0  0  0  0  0  0  0  0  0  0  0
    1.3379    0.9257    0.0000 C   0  0  0  0  0  0  0  0  0  0  0  0
    0.6630    2.2653    0.0000 N   0  0  0  0  0  0  0  0  0  0  0  0
   -0.8196    2.0374    0.0000 N   0  0  0  0  0  0  0  0  0  0  0  0
   -1.0610    0.5570    0.0000 C   0  0  0  0  0  0  0  0  0  0  0  0
   -2.4006   -0.1179    0.0000 C   0  0  0  0  0  0  0  0  0  0  0  0
   -2.6420   -1.5984    0.0000 C   0  0  0  0  0  0  0  0  0  0  0  0
   -4.1246   -1.8263    0.0000 C   0  0  0  0  0  0  0  0  0  0  0  0
   -4.7995   -0.4867    0.0000 C   0  0  0  0  0  0  0  0  0  0  0  0
   -3.7340    0.5691    0.0000 O   0  0  0  0  0  0  0  0  0  0  0  0
    0.2724   -0.1301    0.0000 N   0  0  0  0  0  0  0  0  0  0  0  0
  1  2  3  0
  2  3  1  0
  3  4  1  0
  4  5  1  0
  5  6  2  0
  6  7  1  0
  7  8  1  0
  8  9  1  0
  9 10  2  0
 10 11  1  0
 11 12  2  0
 12 13  1  0
  8 14  2  0
 14  5  1  0
 13  9  1  0
M  END
> <Identifier>
nan

> <hERG>
0

$$$$

     RDKit          2D

  7  6  0  0  0  0  0  0  0  0999 V2000
   -3.7037   -0.3230    0.0000 N   0  0  0  0  0  2  0  0  0  0  0  0
   -2.2654    0.1030    0.0000 N   0  0  0  0  0  4  0  0  0  0  0  0
   -0.8272    0.5291    0.0000 N   0  0  0  0  0  0  0  0  0  0  0  0
    0.2609   -0.5034    0.0000 C   0  0  0  0  0  0  0  0  0  0  0  0
    1.6991   -0.0773    0.0000 C   0  0  0  0  0  0  0  0  0  0  0  0
    2.7872   -1.1098    0.0000 N   0  0  0  0  0  0  0  0  0  0  0  0
    2.0492    1.3813    0.0000 O   0  0  0  0  0  0  0  0  0  0  0  0
  1  2  2  0
  2  3  2  0
  3  4  1  0
  4  5  1  0
  5  6  1  0
  5  7  2  0
M  CHG  2   1  -1   2   1
M  END
> <Identifier>
nan

> <hERG>
0

$$$$

     RDKit          2D

 28 28  0  0  0  0  0  0  0  0999 V2000
   -5.2091    0.8944    0.0000 O   0  0  0  0  0  0  0  0  0  0  0  0
   -5.2685   -0.6045    0.0000 C   0  0  0  0  0  0  0  0  0  0  0  0
   -6.5962   -1.3024    0.0000 O   0  0  0  0  0  0  0  0  0  0  0  0
   -4.0002   -1.4053    0.0000 C   0  0  0  0  0  0  0  0  0  0  0  0
   -2.6725   -0.7074    0.0000 N   0  0  0  0  0  0  0  0  0  0  0  0
   -1.4042   -1.5082    0.0000 C   0  0  0  0  0  0  0  0  0  0  0  0
   -1.4636   -3.0071    0.0000 O   0  0  0  0  0  0  0  0  0  0  0  0
   -0.0764   -0.8103    0.0000 C   0  0  0  0  0  0  0  0  0  0  0  0
    1.2686   -1.4742    0.0000 N   0  0  0  0  0  0  0  0  0  0  0  0
    2.3157   -0.4001    0.0000 C   0  0  0  0  0  0  0  0  0  0  0  0
    3.5632    0.4328    0.0000 C   0  0  0  0  0  0  0  0  0  0  0  0
    4.8107    1.2657    0.0000 F   0  0  0  0  0  0  0  0  0  0  0  0
    2.7303    1.6803    0.0000 F   0  0  0  0  0  0  0  0  0  0  0  0
    4.0834   -0.1713    0.0000 F   0  0  0  0  0  0  0  0  0  0  0  0
    3.2745   -1.5537    0.0000 C   0  0  0  0  0  0  0  0  0  0  0  0
    4.2332   -2.7073    0.0000 F   0  0  0  0  0  0  0  0  0  0  0  0
    2.1209   -2.5125    0.0000 F   0  0  0  0  0  0  0  0  0  0  0  0
    3.9451   -1.1227    0.0000 F   0  0  0  0  0  0  0  0  0  0  0  0
    1.6178    0.9276    0.0000 O   0  0  0  0  0  0  0  0  0  0  0  0
    0.1393    0.6741    0.0000 C   0  0  0  0  0  0  0  0  0  0  0  0
   -1.3595    0.7335    0.0000 C   0  0  0  0  0  0  0  0  0  0  0  0
   -2.8583    0.7929    0.0000 F   0  0  0  0  0  0  0  0  0  0  0  0
   -1.4832    2.2284    0.0000 F   0  0  0  0  0  0  0  0  0  0  0  0
   -1.7798   -0.7064    0.0000 F   0  0  0  0  0  0  0  0  0  0  0  0
    0.0418    2.1709    0.0000 C   0  0  0  0  0  0  0  0  0  0  0  0
   -0.0558    3.6677    0.0000 F   0  0  0  0  0  0  0  0  0  0  0  0
    1.5386    2.2685    0.0000 F   0  0  0  0  0  0  0  0  0  0  0  0
   -1.4558    2.2565    0.0000 F   0  0  0  0  0  0  0  0  0  0  0  0
  1  2  2  0
  2  3  1  0
  2  4  1  0
  4  5  1  0
  5  6  1  0
  6  7  2  0
  8  6  1  1
  8  9  1  0
  9 10  1  0
 10 11  1  0
 11 12  1  0
 11 13  1  0
 11 14  1  0
 10 15  1  0
 15 16  1  0
 15 17  1  0
 15 18  1  0
 10 19  1  0
 19 20  1  0
 20 21  1  0
 21 22  1  0
 21 23  1  0
 21 24  1  0
 20 25  1  0
 25 26  1  0
 25 27  1  0
 25 28  1  0
 20  8  1  0
M  END
> <Identifier>
nan

> <hERG>
0

$$$$

     RDKit          2D

 14 14  0  0  0  0  0  0  0  0999 V2000
    3.3481   -2.3167    0.0000 N   0  0  0  0  0  0  0  0  0  0  0  0
    2.3415   -1.2045    0.0000 C   0  0  0  0  0  0  0  0  0  0  0  0
    0.8751   -1.5201    0.0000 N   0  0  0  0  0  0  0  0  0  0  0  0
   -0.1314   -0.4079    0.0000 C   0  0  0  0  0  0  0  0  0  0  0  0
   -1.5978   -0.7235    0.0000 S   0  0  0  0  0  0  0  0  0  0  0  0
   -2.6043    0.3887    0.0000 C   0  0  0  0  0  0  0  0  0  0  0  0
   -4.0708    0.0731    0.0000 C   0  0  0  0  0  0  0  0  0  0  0  0
   -4.5307   -1.3547    0.0000 O   0  0  0  0  0  0  0  0  0  0  0  0
   -5.0773    1.1853    0.0000 O   0  0  0  0  0  0  0  0  0  0  0  0
    0.3285    1.0198    0.0000 N   0  0  0  0  0  0  0  0  0  0  0  0
    1.7949    1.3354    0.0000 C   0  0  0  0  0  0  0  0  0  0  0  0
    2.2548    2.7632    0.0000 O   0  0  0  0  0  0  0  0  0  0  0  0
    2.8015    0.2232    0.0000 C   0  0  0  0  0  0  0  0  0  0  0  0
    4.2679    0.5388    0.0000 N   0  0  0  0  0  0  0  0  0  0  0  0
  1  2  1  0
  2  3  1  0
  3  4  1  0
  4  5  1  0
  5  6  1  0
  6  7  1  0
  7  8  2  0
  7  9  1  0
  4 10  2  0
 10 11  1  0
 11 12  2  0
 11 13  1  0
 13 14  1  0
 13  2  2  0
M  END
> <Identifier>
nan

> <hERG>
0

$$$$

     RDKit          2D

 13 13  0  0  0  0  0  0  0  0999 V2000
   -4.1181   -1.1434    0.0000 O   0  0  0  0  0  0  0  0  0  0  0  0
   -3.6755    0.2898    0.0000 C   0  0  0  0  0  0  0  0  0  0  0  0
   -4.6954    1.3898    0.0000 O   0  0  0  0  0  0  0  0  0  0  0  0
   -2.2130    0.6231    0.0000 C   0  0  0  0  0  0  0  0  0  0  0  0
   -1.1931   -0.4768    0.0000 S   0  0  0  0  0  0  0  0  0  0  0  0
    0.2694   -0.1436    0.0000 C   0  0  0  0  0  0  0  0  0  0  0  0
    0.7120    1.2896    0.0000 N   0  0  0  0  0  0  0  0  0  0  0  0
    2.1746    1.6229    0.0000 N   0  0  0  0  0  0  0  0  0  0  0  0
    3.1944    0.5229    0.0000 C   0  0  0  0  0  0  0  0  0  0  0  0
    4.6569    0.8562    0.0000 O   0  0  0  0  0  0  0  0  0  0  0  0
    2.7518   -0.9103    0.0000 N   0  0  0  0  0  0  0  0  0  0  0  0
    1.2893   -1.2435    0.0000 C   0  0  0  0  0  0  0  0  0  0  0  0
    0.8466   -2.6767    0.0000 O   0  0  0  0  0  0  0  0  0  0  0  0
  1  2  2  0
  2  3  1  0
  2  4  1  0
  4  5  1  0
  5  6  1  0
  6  7  2  0
  7  8  1  0
  8  9  1  0
  9 10  2  0
  9 11  1  0
 11 12  1  0
 12 13  2  0
 12  6  1  0
M  END
> <Identifier>
nan

> <hERG>
0

$$$$

     RDKit          2D

  9  8  0  0  0  0  0  0  0  0999 V2000
    3.1703    1.1447    0.0000 N   0  0  0  0  0  0  0  0  0  0  0  0
    2.0193    0.1828    0.0000 C   0  0  0  0  0  0  0  0  0  0  0  0
    2.2769   -1.2950    0.0000 O   0  0  0  0  0  0  0  0  0  0  0  0
    0.6108    0.6986    0.0000 C   0  0  0  0  0  0  0  0  0  0  0  0
   -0.5402   -0.2633    0.0000 C   0  0  0  0  0  0  0  0  0  0  0  0
   -0.2826   -1.7410    0.0000 N   0  0  0  0  0  0  0  0  0  0  0  0
   -1.9487    0.2525    0.0000 C   0  0  0  0  0  0  0  0  0  0  0  0
   -3.0997   -0.7094    0.0000 N   0  0  0  0  0  0  0  0  0  0  0  0
   -2.2062    1.7302    0.0000 O   0  0  0  0  0  0  0  0  0  0  0  0
  1  2  1  0
  2  3  2  0
  2  4  1  0
  4  5  1  0
  5  6  1  1
  5  7  1  0
  7  8  1  0
  7  9  2  0
M  END
> <Identifier>
nan

> <hERG>
0

$$$$

     RDKit          2D

 10  9  0  0  0  0  0  0  0  0999 V2000
    0.3742    1.9487    0.0000 N   0  0  0  0  0  0  0  0  0  0  0  0
    0.5891    0.4642    0.0000 C   0  0  0  0  0  0  0  0  0  0  0  0
    1.9822   -0.0920    0.0000 C   0  0  0  0  0  0  0  0  0  0  0  0
    2.1971   -1.5765    0.0000 O   0  0  0  0  0  0  0  0  0  0  0  0
    3.1604    0.8364    0.0000 O   0  0  0  0  0  0  0  0  0  0  0  0
   -0.5891   -0.4642    0.0000 C   0  0  0  0  0  0  0  0  0  0  0  0
   -0.3742   -1.9487    0.0000 N   0  0  0  0  0  0  0  0  0  0  0  0
   -1.9822    0.0920    0.0000 C   0  0  0  0  0  0  0  0  0  0  0  0
   -2.1971    1.5765    0.0000 O   0  0  0  0  0  0  0  0  0  0  0  0
   -3.1604   -0.8364    0.0000 O   0  0  0  0  0  0  0  0  0  0  0  0
  2  1  1  1
  2  3  1  0
  3  4  2  0
  3  5  1  0
  2  6  1  0
  6  7  1  1
  6  8  1  0
  8  9  2  0
  8 10  1  0
M  END
> <Identifier>
nan

> <hERG>
0

$$$$

     RDKit          2D

 10  9  0  0  0  0  0  0  0  0999 V2000
   -3.9947    0.7313    0.0000 N   0  0  0  0  0  0  0  0  0  0  0  0
   -2.7359   -0.0845    0.0000 C   0  0  0  0  0  0  0  0  0  0  0  0
   -2.8131   -1.5825    0.0000 N   0  0  0  0  0  0  0  0  0  0  0  0
   -1.4001    0.5978    0.0000 N   0  0  0  0  0  0  0  0  0  0  0  0
   -0.1413   -0.2180    0.0000 C   0  0  0  0  0  0  0  0  0  0  0  0
    1.1946    0.4642    0.0000 C   0  0  0  0  0  0  0  0  0  0  0  0
    1.2717    1.9622    0.0000 N   0  0  0  0  0  0  0  0  0  0  0  0
    2.4533   -0.3516    0.0000 C   0  0  0  0  0  0  0  0  0  0  0  0
    2.3762   -1.8496    0.0000 O   0  0  0  0  0  0  0  0  0  0  0  0
    3.7892    0.3306    0.0000 O   0  0  0  0  0  0  0  0  0  0  0  0
  1  2  1  0
  2  3  1  0
  2  4  2  0
  4  5  1  0
  5  6  1  0
  6  7  1  1
  6  8  1  0
  8  9  2  0
  8 10  1  0
M  END
> <Identifier>
nan

> <hERG>
0

$$$$

     RDKit          2D

  8  7  0  0  0  0  0  0  0  0999 V2000
   -0.2517   -1.8862    0.0000 N   0  0  0  0  0  0  0  0  0  0  0  0
   -0.3100   -0.3873    0.0000 C   0  0  0  0  0  0  0  0  0  0  0  0
    0.9590    0.4126    0.0000 C   0  0  0  0  0  0  0  0  0  0  0  0
    2.2862   -0.2864    0.0000 N   0  0  0  0  0  0  0  0  0  0  0  0
    3.5551    0.5134    0.0000 O   0  0  0  0  0  0  0  0  0  0  0  0
   -1.6371    0.3117    0.0000 C   0  0  0  0  0  0  0  0  0  0  0  0
   -1.6954    1.8105    0.0000 O   0  0  0  0  0  0  0  0  0  0  0  0
   -2.9061   -0.4882    0.0000 O   0  0  0  0  0  0  0  0  0  0  0  0
  2  1  1  1
  2  3  1  0
  3  4  1  0
  4  5  1  0
  2  6  1  0
  6  7  2  0
  6  8  1  0
M  END
> <Identifier>
nan

> <hERG>
0

$$$$

     RDKit          2D

 12 11  0  0  0  0  0  0  0  0999 V2000
    4.5645   -1.1427    0.0000 N   0  0  0  0  0  0  0  0  0  0  0  0
    3.3457   -0.2684    0.0000 C   0  0  0  0  0  0  0  0  0  0  0  0
    3.4934    1.2243    0.0000 O   0  0  0  0  0  0  0  0  0  0  0  0
    1.9791   -0.8868    0.0000 C   0  0  0  0  0  0  0  0  0  0  0  0
    0.7602   -0.0124    0.0000 S   0  0  0  0  0  0  0  0  0  0  0  0
    0.9080    1.4803    0.0000 O   0  0  0  0  0  0  0  0  0  0  0  0
   -0.6064   -0.6308    0.0000 C   0  0  0  0  0  0  0  0  0  0  0  0
   -1.8252    0.2435    0.0000 C   0  0  0  0  0  0  0  0  0  0  0  0
   -1.6774    1.7362    0.0000 N   0  0  0  0  0  0  0  0  0  0  0  0
   -3.1918   -0.3749    0.0000 C   0  0  0  0  0  0  0  0  0  0  0  0
   -3.3396   -1.8676    0.0000 O   0  0  0  0  0  0  0  0  0  0  0  0
   -4.4106    0.4994    0.0000 O   0  0  0  0  0  0  0  0  0  0  0  0
  1  2  1  0
  2  3  2  0
  2  4  1  0
  4  5  1  0
  5  6  2  0
  5  7  1  0
  7  8  1  0
  8  9  1  1
  8 10  1  0
 10 11  2  0
 10 12  1  0
M  END
> <Identifier>
nan

> <hERG>
0

$$$$

     RDKit          2D

 11 11  0  0  0  0  0  0  0  0999 V2000
   -3.7893    1.4386    0.0000 N   0  0  0  0  0  0  0  0  0  0  0  0
   -2.7697    0.3385    0.0000 C   0  0  0  0  0  0  0  0  0  0  0  0
   -3.2126   -1.0946    0.0000 O   0  0  0  0  0  0  0  0  0  0  0  0
   -1.3071    0.6714    0.0000 C   0  0  0  0  0  0  0  0  0  0  0  0
   -0.2874   -0.4288    0.0000 C   0  0  0  0  0  0  0  0  0  0  0  0
   -0.7304   -1.8619    0.0000 N   0  0  0  0  0  0  0  0  0  0  0  0
    1.1751   -0.0958    0.0000 C   0  0  0  0  0  0  0  0  0  0  0  0
    2.3042   -1.0834    0.0000 N   0  0  0  0  0  0  0  0  0  0  0  0
    3.5923   -0.3148    0.0000 N   0  0  0  0  0  0  0  0  0  0  0  0
    3.2594    1.1478    0.0000 N   0  0  0  0  0  0  0  0  0  0  0  0
    1.7655    1.2831    0.0000 N   0  0  0  0  0  0  0  0  0  0  0  0
  1  2  1  0
  2  3  2  0
  2  4  1  0
  4  5  1  0
  5  6  1  6
  5  7  1  0
  7  8  1  0
  8  9  2  0
  9 10  1  0
 10 11  1  0
 11  7  2  0
M  END
> <Identifier>
nan

> <hERG>
0

$$$$

     RDKit          2D

 10  9  0  0  0  0  0  0  0  0999 V2000
    4.2942    0.2788    0.0000 N   0  0  0  0  0  0  0  0  0  0  0  0
    2.8965    0.8233    0.0000 C   0  0  0  0  0  0  0  0  0  0  0  0
    1.7261   -0.1148    0.0000 C   0  0  0  0  0  0  0  0  0  0  0  0
    1.9533   -1.5975    0.0000 O   0  0  0  0  0  0  0  0  0  0  0  0
    0.3284    0.4297    0.0000 C   0  0  0  0  0  0  0  0  0  0  0  0
   -0.8420   -0.5084    0.0000 S   0  0  0  0  0  0  0  0  0  0  0  0
   -2.2397    0.0361    0.0000 P   0  0  0  0  0  0  0  0  0  0  0  0
   -2.7842   -1.3616    0.0000 O   0  0  0  0  0  0  0  0  0  0  0  0
   -1.6951    1.4338    0.0000 O   0  0  0  0  0  0  0  0  0  0  0  0
   -3.6374    0.5806    0.0000 O   0  0  0  0  0  0  0  0  0  0  0  0
  1  2  1  0
  2  3  1  0
  3  4  1  1
  3  5  1  0
  5  6  1  0
  6  7  1  0
  7  8  2  0
  7  9  1  0
  7 10  1  0
M  END
> <Identifier>
nan

> <hERG>
0

$$$$

     RDKit          2D

 21 22  0  0  0  0  0  0  0  0999 V2000
    5.8919   -2.2678    0.0000 O   0  0  0  0  0  0  0  0  0  0  0  0
    4.9099   -1.1339    0.0000 C   0  0  0  0  0  0  0  0  0  0  0  0
    3.4369   -1.4174    0.0000 N   0  0  0  0  0  0  0  0  0  0  0  0
    2.4550   -0.2835    0.0000 C   0  0  0  0  0  0  0  0  0  0  0  0
    0.9820   -0.5669    0.0000 S   0  0  0  0  0  0  0  0  0  0  0  0
    0.0000    0.5669    0.0000 C   0  0  0  0  0  0  0  0  0  0  0  0
   -1.4730    0.2835    0.0000 C   0  0  0  0  0  0  0  0  0  0  0  0
   -2.4550    1.4174    0.0000 C   0  0  0  0  0  0  0  0  0  0  0  0
   -1.9640    2.8347    0.0000 Cl  0  0  0  0  0  0  0  0  0  0  0  0
   -3.9279    1.1339    0.0000 C   0  0  0  0  0  0  0  0  0  0  0  0
   -4.9099    2.2678    0.0000 Cl  0  0  0  0  0  0  0  0  0  0  0  0
   -4.4189   -0.2835    0.0000 C   0  0  0  0  0  0  0  0  0  0  0  0
   -5.8919   -0.5669    0.0000 Cl  0  0  0  0  0  0  0  0  0  0  0  0
   -3.4369   -1.4174    0.0000 C   0  0  0  0  0  0  0  0  0  0  0  0
   -3.9279   -2.8347    0.0000 Cl  0  0  0  0  0  0  0  0  0  0  0  0
   -1.9640   -1.1339    0.0000 C   0  0  0  0  0  0  0  0  0  0  0  0
   -0.9820   -2.2678    0.0000 Cl  0  0  0  0  0  0  0  0  0  0  0  0
    2.9459    1.1339    0.0000 N   0  0  0  0  0  0  0  0  0  0  0  0
    4.4189    1.4174    0.0000 C   0  0  0  0  0  0  0  0  0  0  0  0
    4.9099    2.8347    0.0000 S   0  0  0  0  0  0  0  0  0  0  0  0
    5.4009    0.2835    0.0000 N   0  0  0  0  0  0  0  0  0  0  0  0
  1  2  2  0
  2  3  1  0
  3  4  1  0
  4  5  1  0
  5  6  1  0
  6  7  1  0
  7  8  2  0
  8  9  1  0
  8 10  1  0
 10 11  1  0
 10 12  2  0
 12 13  1  0
 12 14  1  0
 14 15  1  0
 14 16  2  0
 16 17  1  0
  4 18  2  0
 18 19  1  0
 19 20  2  0
 19 21  1  0
 21  2  1  0
 16  7  1  0
M  END
> <Identifier>
nan

> <hERG>
0

$$$$

     RDKit          2D

 12 12  0  0  0  0  0  0  0  0999 V2000
   -1.5350   -2.9294    0.0000 N   0  0  0  0  0  0  0  0  0  0  0  0
   -1.3120   -1.4460    0.0000 C   0  0  0  0  0  0  0  0  0  0  0  0
   -2.4852   -0.5113    0.0000 N   0  0  0  0  0  0  0  0  0  0  0  0
   -2.2622    0.9720    0.0000 C   0  0  0  0  0  0  0  0  0  0  0  0
   -3.4353    1.9068    0.0000 N   0  0  0  0  0  0  0  0  0  0  0  0
   -0.8661    1.5206    0.0000 N   0  0  0  0  0  0  0  0  0  0  0  0
    0.3070    0.5859    0.0000 C   0  0  0  0  0  0  0  0  0  0  0  0
    1.7031    1.1345    0.0000 C   0  0  0  0  0  0  0  0  0  0  0  0
    2.8762    0.1997    0.0000 C   0  0  0  0  0  0  0  0  0  0  0  0
    2.6533   -1.2836    0.0000 O   0  0  0  0  0  0  0  0  0  0  0  0
    4.2723    0.7483    0.0000 O   0  0  0  0  0  0  0  0  0  0  0  0
    0.0840   -0.8975    0.0000 N   0  0  0  0  0  0  0  0  0  0  0  0
  1  2  1  0
  2  3  2  0
  3  4  1  0
  4  5  1  0
  4  6  2  0
  6  7  1  0
  7  8  1  0
  8  9  1  0
  9 10  2  0
  9 11  1  0
  7 12  2  0
 12  2  1  0
M  END
> <Identifier>
nan

> <hERG>
0

$$$$

     RDKit          2D

 11 11  0  0  0  0  0  0  0  0999 V2000
   -0.9461    1.6947    0.0000 N   0  0  0  0  0  0  0  0  0  0  0  0
   -1.3100    0.2395    0.0000 C   0  0  0  0  0  0  0  0  0  0  0  0
   -0.2317   -0.8032    0.0000 C   0  0  0  0  0  0  0  0  0  0  0  0
    1.2105   -0.3908    0.0000 C   0  0  0  0  0  0  0  0  0  0  0  0
    2.3919   -1.3151    0.0000 N   0  0  0  0  0  0  0  0  0  0  0  0
    3.6360   -0.4772    0.0000 N   0  0  0  0  0  0  0  0  0  0  0  0
    3.2236    0.9650    0.0000 N   0  0  0  0  0  0  0  0  0  0  0  0
    1.7245    1.0184    0.0000 N   0  0  0  0  0  0  0  0  0  0  0  0
   -2.7522   -0.1729    0.0000 C   0  0  0  0  0  0  0  0  0  0  0  0
   -3.1161   -1.6281    0.0000 O   0  0  0  0  0  0  0  0  0  0  0  0
   -3.8304    0.8698    0.0000 O   0  0  0  0  0  0  0  0  0  0  0  0
  2  1  1  6
  2  3  1  0
  3  4  1  0
  4  5  1  0
  5  6  2  0
  6  7  1  0
  7  8  1  0
  2  9  1  0
  9 10  2  0
  9 11  1  0
  8  4  2  0
M  END
> <Identifier>
nan

> <hERG>
0

$$$$

     RDKit          2D

 13 13  0  0  0  0  0  0  0  0999 V2000
   -5.3276   -0.6835    0.0000 N   0  0  0  0  0  0  0  0  0  0  0  0
   -3.9668   -0.0525    0.0000 C   0  0  0  0  0  0  0  0  0  0  0  0
   -3.8329    1.4415    0.0000 O   0  0  0  0  0  0  0  0  0  0  0  0
   -2.7399   -0.9154    0.0000 N   0  0  0  0  0  0  0  0  0  0  0  0
   -1.3791   -0.2844    0.0000 O   0  0  0  0  0  0  0  0  0  0  0  0
   -0.1522   -1.1474    0.0000 C   0  0  0  0  0  0  0  0  0  0  0  0
    1.2086   -0.5164    0.0000 C   0  0  0  0  0  0  0  0  0  0  0  0
    2.5190   -1.2464    0.0000 N   0  0  0  0  0  0  0  0  0  0  0  0
    3.6182   -0.2257    0.0000 C   0  0  0  0  0  0  0  0  0  0  0  0
    5.0900   -0.5151    0.0000 O   0  0  0  0  0  0  0  0  0  0  0  0
    2.9872    1.1351    0.0000 N   0  0  0  0  0  0  0  0  0  0  0  0
    1.4980    0.9555    0.0000 C   0  0  0  0  0  0  0  0  0  0  0  0
    0.4773    2.0547    0.0000 O   0  0  0  0  0  0  0  0  0  0  0  0
  1  2  1  0
  2  3  2  0
  2  4  1  0
  4  5  1  0
  5  6  1  0
  7  6  1  6
  7  8  1  0
  8  9  1  0
  9 10  2  0
  9 11  1  0
 11 12  1  0
 12 13  2  0
 12  7  1  0
M  END
> <Identifier>
nan

> <hERG>
0

$$$$

     RDKit          2D

 15 14  0  0  0  0  0  0  0  0999 V2000
    0.0000    3.2506    0.0000 O   0  0  0  0  0  0  0  0  0  0  0  0
    3.1310   -1.8578    0.0000 O   0  0  0  0  0  0  0  0  0  0  0  0
    3.1460   -0.3579    0.0000 C   0  0  0  0  0  0  0  0  0  0  0  0
    4.4524    0.3791    0.0000 O   0  0  0  0  0  0  0  0  0  0  0  0
    1.8545    0.4050    0.0000 C   0  0  0  0  0  0  0  0  0  0  0  0
    1.8694    1.9049    0.0000 O   0  0  0  0  0  0  0  0  0  0  0  0
    0.5480   -0.3320    0.0000 C   0  0  0  0  0  0  0  0  0  0  0  0
    0.5331   -1.8320    0.0000 O   0  0  0  0  0  0  0  0  0  0  0  0
   -0.7435    0.4309    0.0000 C   0  0  0  0  0  0  0  0  0  0  0  0
   -0.8854    1.9241    0.0000 O   0  0  0  0  0  0  0  0  0  0  0  0
   -2.3495    2.2506    0.0000 Sb  0  0  0  0  0  3  0  0  0  0  0  0
   -3.1124    0.9591    0.0000 O   0  0  0  0  0  0  0  0  0  0  0  0
   -2.1198   -0.1656    0.0000 C   0  0  0  0  0  0  0  0  0  0  0  0
   -2.4463   -1.6296    0.0000 C   0  0  0  0  0  0  0  0  0  0  0  0
   -3.8774   -2.0789    0.0000 O   0  0  0  0  0  0  0  0  0  0  0  0
  2  3  2  0
  3  4  1  0
  3  5  1  0
  5  6  1  1
  5  7  1  0
  7  8  1  1
  7  9  1  0
  9 10  1  6
 10 11  1  0
 11 12  1  0
 12 13  1  0
 13 14  1  1
 14 15  1  0
 13  9  1  0
M  END
> <Identifier>
nan

> <hERG>
0

$$$$

     RDKit          2D

 33 37  0  0  0  0  0  0  0  0999 V2000
   -9.8976    1.8827    0.0000 C   0  0  0  0  0  0  0  0  0  0  0  0
   -8.9227    0.7427    0.0000 S   0  0  0  0  0  0  0  0  0  0  0  0
   -7.7827    1.7176    0.0000 O   0  0  0  0  0  0  0  0  0  0  0  0
  -10.0626   -0.2322    0.0000 O   0  0  0  0  0  0  0  0  0  0  0  0
   -7.9477   -0.3973    0.0000 N   0  0  0  0  0  0  0  0  0  0  0  0
   -6.4730   -0.1230    0.0000 C   0  0  0  0  0  0  0  0  0  0  0  0
   -5.9732    1.2913    0.0000 C   0  0  0  0  0  0  0  0  0  0  0  0
   -4.4985    1.5656    0.0000 C   0  0  0  0  0  0  0  0  0  0  0  0
   -3.5236    0.4256    0.0000 C   0  0  0  0  0  0  0  0  0  0  0  0
   -4.0234   -0.9886    0.0000 C   0  0  0  0  0  0  0  0  0  0  0  0
   -5.4981   -1.2629    0.0000 C   0  0  0  0  0  0  0  0  0  0  0  0
   -3.0485   -2.1286    0.0000 C   0  0  0  0  0  0  0  0  0  0  0  0
   -3.5483   -3.5429    0.0000 O   0  0  0  0  0  0  0  0  0  0  0  0
   -1.5738   -1.8543    0.0000 C   0  0  0  0  0  0  0  0  0  0  0  0
   -1.0740   -0.4400    0.0000 C   0  0  0  0  0  0  0  0  0  0  0  0
   -0.0991   -1.5800    0.0000 C   0  0  0  0  0  0  0  0  0  0  0  0
    1.3756   -1.3057    0.0000 C   0  0  0  0  0  0  0  0  0  0  0  0
    1.8754    0.1086    0.0000 N   0  0  0  0  0  4  0  0  0  0  0  0
    3.3501    0.3829    0.0000 C   0  0  0  0  0  0  0  0  0  0  0  0
    3.8499    1.7972    0.0000 C   0  0  0  0  0  0  0  0  0  0  0  0
    5.3246    2.0715    0.0000 C   0  0  0  0  0  0  0  0  0  0  0  0
    6.2995    0.9315    0.0000 C   0  0  0  0  0  0  0  0  0  0  0  0
    7.7742    1.2058    0.0000 C   0  0  0  0  0  0  0  0  0  0  0  0
    8.7491    0.0659    0.0000 C   0  0  0  0  0  0  0  0  0  0  0  0
   10.2238    0.3402    0.0000 C   0  0  0  0  0  0  0  0  0  0  0  0
   11.6985    0.6145    0.0000 N   0  0  0  0  0  0  0  0  0  0  0  0
    8.2493   -1.3484    0.0000 C   0  0  0  0  0  0  0  0  0  0  0  0
    6.7746   -1.6227    0.0000 C   0  0  0  0  0  0  0  0  0  0  0  0
    5.7997   -0.4828    0.0000 C   0  0  0  0  0  0  0  0  0  0  0  0
    4.3250   -0.7571    0.0000 C   0  0  0  0  0  0  0  0  0  0  0  0
    0.9005    1.2486    0.0000 C   0  0  0  0  0  0  0  0  0  0  0  0
   -0.5742    0.9743    0.0000 C   0  0  0  0  0  0  0  0  0  0  0  0
   -2.0489    0.7000    0.0000 O   0  0  0  0  0  0  0  0  0  0  0  0
  1  2  1  0
  2  3  2  0
  2  4  2  0
  2  5  1  0
  5  6  1  0
  6  7  2  0
  7  8  1  0
  8  9  2  0
  9 10  1  0
 10 11  2  0
 10 12  1  0
 12 13  1  0
 12 14  1  0
 14 15  1  0
 15 16  1  0
 16 17  1  0
 17 18  1  0
 18 19  1  0
 19 20  1  0
 20 21  1  0
 21 22  1  0
 22 23  2  0
 23 24  1  0
 24 25  1  0
 25 26  3  0
 24 27  2  0
 27 28  1  0
 28 29  2  0
 29 30  1  0
 18 31  1  0
 31 32  1  0
 15 33  1  0
 11  6  1  0
 32 15  1  0
 33  9  1  0
 30 19  1  0
 29 22  1  0
M  CHG  1  18   1
M  END
> <Identifier>
MK-499

> <hERG>
1

$$$$

     RDKit          2D

 29 31  0  0  0  0  0  0  0  0999 V2000
   -0.2329   -2.7285    0.0000 C   0  0  0  0  0  0  0  0  0  0  0  0
   -1.7158   -2.5024    0.0000 C   0  0  0  0  0  0  0  0  0  0  0  0
   -2.2614   -1.1051    0.0000 O   0  0  0  0  0  0  0  0  0  0  0  0
   -3.7443   -0.8790    0.0000 C   0  0  0  0  0  0  0  0  0  0  0  0
   -4.6815   -2.0502    0.0000 C   0  0  0  0  0  0  0  0  0  0  0  0
   -6.1644   -1.8240    0.0000 C   0  0  0  0  0  0  0  0  0  0  0  0
   -7.1016   -2.9952    0.0000 N   0  0  0  0  0  0  0  0  0  0  0  0
   -6.7100   -0.4268    0.0000 C   0  0  0  0  0  0  0  0  0  0  0  0
   -8.1928   -0.2007    0.0000 Cl  0  0  0  0  0  0  0  0  0  0  0  0
   -5.7727    0.7443    0.0000 C   0  0  0  0  0  0  0  0  0  0  0  0
   -4.2899    0.5182    0.0000 C   0  0  0  0  0  0  0  0  0  0  0  0
   -3.3526    1.6894    0.0000 C   0  0  0  0  0  0  0  0  0  0  0  0
   -3.8982    3.0866    0.0000 O   0  0  0  0  0  0  0  0  0  0  0  0
   -1.8698    1.4632    0.0000 N   0  0  0  0  0  0  0  0  0  0  0  0
   -0.9325    2.6344    0.0000 C   0  0  0  0  0  0  0  0  0  0  0  0
    0.5504    2.4082    0.0000 C   0  0  0  0  0  0  0  0  0  0  0  0
    1.0960    1.0110    0.0000 C   0  0  0  0  0  0  0  0  0  0  0  0
    2.5788    0.7849    0.0000 N   0  0  0  0  0  4  0  0  0  0  0  0
    3.1244   -0.6124    0.0000 C   0  0  0  0  0  0  0  0  0  0  0  0
    4.6073   -0.8385    0.0000 C   0  0  0  0  0  0  0  0  0  0  0  0
    5.5445    0.3326    0.0000 C   0  0  0  0  0  0  0  0  0  0  0  0
    7.0274    0.1065    0.0000 C   0  0  0  0  0  0  0  0  0  0  0  0
    7.5730   -1.2907    0.0000 C   0  0  0  0  0  0  0  0  0  0  0  0
    9.0559   -1.5169    0.0000 F   0  0  0  0  0  0  0  0  0  0  0  0
    6.6357   -2.4619    0.0000 C   0  0  0  0  0  0  0  0  0  0  0  0
    5.1529   -2.2358    0.0000 C   0  0  0  0  0  0  0  0  0  0  0  0
    3.5161    1.9560    0.0000 C   0  0  0  0  0  0  0  0  0  0  0  0
    2.9705    3.3533    0.0000 C   0  0  0  0  0  0  0  0  0  0  0  0
    1.4876    3.5794    0.0000 O   0  0  0  0  0  0  0  0  0  0  0  0
  1  2  1  0
  2  3  1  0
  3  4  1  0
  4  5  2  0
  5  6  1  0
  6  7  1  0
  6  8  2  0
  8  9  1  0
  8 10  1  0
 10 11  2  0
 11 12  1  0
 12 13  2  0
 12 14  1  0
 14 15  1  0
 15 16  1  0
 16 17  1  0
 17 18  1  0
 18 19  1  0
 19 20  1  0
 20 21  2  0
 21 22  1  0
 22 23  2  0
 23 24  1  0
 23 25  1  0
 25 26  2  0
 18 27  1  0
 27 28  1  0
 28 29  1  0
 11  4  1  0
 29 16  1  0
 26 20  1  0
M  CHG  1  18   1
M  END
> <Identifier>
MOSAPRIDE

> <hERG>
1

$$$$

     RDKit          2D

 20 22  0  0  0  0  0  0  0  0999 V2000
   -5.9628   -2.5182    0.0000 C   0  0  0  0  0  0  0  0  0  0  0  0
   -4.8630   -1.4982    0.0000 N   0  0  0  0  0  4  0  0  0  0  0  0
   -3.4297   -1.9407    0.0000 C   0  0  0  0  0  0  0  0  0  0  0  0
   -2.3299   -0.9207    0.0000 C   0  0  0  0  0  0  0  0  0  0  0  0
   -0.8967   -1.3631    0.0000 C   0  0  0  0  0  0  0  0  0  0  0  0
    0.2031   -0.3431    0.0000 C   0  0  0  0  0  0  0  0  0  0  0  0
    1.5993   -0.8914    0.0000 C   0  0  0  0  0  0  0  0  0  0  0  0
    1.5990   -2.3914    0.0000 C   0  0  0  0  0  0  0  0  0  0  0  0
    2.8979   -3.1417    0.0000 C   0  0  0  0  0  0  0  0  0  0  0  0
    4.1971   -2.3920    0.0000 C   0  0  0  0  0  0  0  0  0  0  0  0
    4.1974   -0.8920    0.0000 C   0  0  0  0  0  0  0  0  0  0  0  0
    2.8985   -0.1417    0.0000 C   0  0  0  0  0  0  0  0  0  0  0  0
    3.1224    1.3415    0.0000 C   0  0  0  0  0  0  0  0  0  0  0  0
    2.1024    2.4413    0.0000 C   0  0  0  0  0  0  0  0  0  0  0  0
    0.6066    2.3295    0.0000 C   0  0  0  0  0  0  0  0  0  0  0  0
   -0.0439    3.6811    0.0000 C   0  0  0  0  0  0  0  0  0  0  0  0
   -1.5397    3.7935    0.0000 C   0  0  0  0  0  0  0  0  0  0  0  0
   -2.3850    2.5544    0.0000 C   0  0  0  0  0  0  0  0  0  0  0  0
   -1.7344    1.2028    0.0000 C   0  0  0  0  0  0  0  0  0  0  0  0
   -0.2387    1.0903    0.0000 C   0  0  0  0  0  0  0  0  0  0  0  0
  1  2  1  0
  2  3  1  0
  3  4  1  0
  4  5  1  0
  5  6  2  0
  6  7  1  0
  7  8  2  0
  8  9  1  0
  9 10  2  0
 10 11  1  0
 11 12  2  0
 12 13  1  0
 13 14  1  0
 14 15  1  0
 15 16  2  0
 16 17  1  0
 17 18  2  0
 18 19  1  0
 19 20  2  0
 20  6  1  0
 12  7  1  0
 20 15  1  0
M  CHG  1   2   1
M  END
> <Identifier>
NORTRIPTYLINE

> <hERG>
1

$$$$

     RDKit          2D

 22 25  0  0  0  0  0  0  0  0999 V2000
   -3.1453    1.8205    0.0000 C   0  0  0  0  0  0  0  0  0  0  0  0
   -4.1657    0.7211    0.0000 C   0  0  0  0  0  0  0  0  0  0  0  0
   -5.6549    0.9004    0.0000 N   0  0  0  0  0  0  0  0  0  0  0  0
   -6.2856   -0.4606    0.0000 C   0  0  0  0  0  0  0  0  0  0  0  0
   -5.1862   -1.4810    0.0000 C   0  0  0  0  0  0  0  0  0  0  0  0
   -3.8760   -0.7507    0.0000 N   0  0  0  0  0  0  0  0  0  0  0  0
   -2.5150   -1.3814    0.0000 C   0  0  0  0  0  0  0  0  0  0  0  0
   -1.2883   -0.5182    0.0000 C   0  0  0  0  0  0  0  0  0  0  0  0
   -1.4226    0.9758    0.0000 C   0  0  0  0  0  0  0  0  0  0  0  0
   -0.1959    1.8391    0.0000 C   0  0  0  0  0  0  0  0  0  0  0  0
    1.1651    1.2083    0.0000 C   0  0  0  0  0  0  0  0  0  0  0  0
    1.2993   -0.2856    0.0000 C   0  0  0  0  0  0  0  0  0  0  0  0
    2.7617   -0.6196    0.0000 C   0  0  0  0  0  0  0  0  0  0  0  0
    3.4920   -1.9298    0.0000 C   0  0  0  0  0  0  0  0  0  0  0  0
    4.9918   -1.9525    0.0000 C   0  0  0  0  0  0  0  0  0  0  0  0
    5.7613   -0.6649    0.0000 C   0  0  0  0  0  0  0  0  0  0  0  0
    5.0310    0.6453    0.0000 C   0  0  0  0  0  0  0  0  0  0  0  0
    3.5312    0.6679    0.0000 C   0  0  0  0  0  0  0  0  0  0  0  0
    2.5444    1.7977    0.0000 N   0  0  0  0  0  0  0  0  0  0  0  0
    2.8784    3.2600    0.0000 C   0  0  0  0  0  0  0  0  0  0  0  0
    0.0726   -1.1489    0.0000 C   0  0  0  0  0  0  0  0  0  0  0  0
    0.2069   -2.6429    0.0000 O   0  0  0  0  0  0  0  0  0  0  0  0
  1  2  1  0
  2  3  2  0
  3  4  1  0
  4  5  2  0
  5  6  1  0
  6  7  1  0
  7  8  1  0
  8  9  1  0
  9 10  1  0
 10 11  1  0
 11 12  2  0
 12 13  1  0
 13 14  2  0
 14 15  1  0
 15 16  2  0
 16 17  1  0
 17 18  2  0
 18 19  1  0
 19 20  1  0
 12 21  1  0
 21 22  2  0
  6  2  1  0
 21  8  1  0
 19 11  1  0
 18 13  1  0
M  END
> <Identifier>
ONDANSETRON

> <hERG>
1

$$$$

     RDKit          2D

 28 30  0  0  0  0  0  0  0  0999 V2000
  -10.2746    1.3855    0.0000 C   0  0  0  0  0  0  0  0  0  0  0  0
   -9.2935    0.2508    0.0000 O   0  0  0  0  0  0  0  0  0  0  0  0
   -7.8203    0.5330    0.0000 C   0  0  0  0  0  0  0  0  0  0  0  0
   -7.3282    1.9499    0.0000 C   0  0  0  0  0  0  0  0  0  0  0  0
   -5.8549    2.2322    0.0000 C   0  0  0  0  0  0  0  0  0  0  0  0
   -4.8739    1.0975    0.0000 C   0  0  0  0  0  0  0  0  0  0  0  0
   -3.4007    1.3797    0.0000 C   0  0  0  0  0  0  0  0  0  0  0  0
   -2.4197    0.2450    0.0000 N   0  0  0  0  0  4  0  0  0  0  0  0
   -0.9465    0.5272    0.0000 C   0  0  0  0  0  0  0  0  0  0  0  0
    0.0346   -0.6075    0.0000 C   0  0  0  0  0  0  0  0  0  0  0  0
   -0.4576   -2.0244    0.0000 O   0  0  0  0  0  0  0  0  0  0  0  0
    1.5078   -0.3252    0.0000 C   0  0  0  0  0  0  0  0  0  0  0  0
    2.4888   -1.4599    0.0000 O   0  0  0  0  0  0  0  0  0  0  0  0
    3.9620   -1.1777    0.0000 C   0  0  0  0  0  0  0  0  0  0  0  0
    4.9430   -2.3124    0.0000 C   0  0  0  0  0  0  0  0  0  0  0  0
    6.4162   -2.0302    0.0000 C   0  0  0  0  0  0  0  0  0  0  0  0
    6.9084   -0.6132    0.0000 C   0  0  0  0  0  0  0  0  0  0  0  0
    8.3816   -0.3310    0.0000 N   0  0  0  0  0  0  0  0  0  0  0  0
    8.8738    1.0860    0.0000 C   0  0  0  0  0  0  0  0  0  0  0  0
   10.3470    1.3682    0.0000 O   0  0  0  0  0  0  0  0  0  0  0  0
    7.8928    2.2207    0.0000 C   0  0  0  0  0  0  0  0  0  0  0  0
    6.4196    1.9384    0.0000 C   0  0  0  0  0  0  0  0  0  0  0  0
    5.9274    0.5215    0.0000 C   0  0  0  0  0  0  0  0  0  0  0  0
    4.4542    0.2393    0.0000 C   0  0  0  0  0  0  0  0  0  0  0  0
   -5.3661   -0.3195    0.0000 C   0  0  0  0  0  0  0  0  0  0  0  0
   -6.8393   -0.6017    0.0000 C   0  0  0  0  0  0  0  0  0  0  0  0
   -7.3315   -2.0187    0.0000 O   0  0  0  0  0  0  0  0  0  0  0  0
   -6.3504   -3.1534    0.0000 C   0  0  0  0  0  0  0  0  0  0  0  0
  1  2  1  0
  2  3  1  0
  3  4  2  0
  4  5  1  0
  5  6  2  0
  6  7  1  0
  7  8  1  0
  8  9  1  0
  9 10  1  0
 10 11  1  0
 10 12  1  0
 12 13  1  0
 13 14  1  0
 14 15  2  0
 15 16  1  0
 16 17  2  0
 17 18  1  0
 18 19  1  0
 19 20  2  0
 19 21  1  0
 21 22  2  0
 22 23  1  0
 23 24  2  0
  6 25  1  0
 25 26  2  0
 26 27  1  0
 27 28  1  0
 26  3  1  0
 24 14  1  0
 23 17  1  0
M  CHG  1   8   1
M  END
> <Identifier>
OPC18790

> <hERG>
1

$$$$

     RDKit          2D

 26 27  0  0  0  0  0  0  0  0999 V2000
   -8.6976   -0.7020    0.0000 C   0  0  0  0  0  0  0  0  0  0  0  0
   -7.5409    0.2531    0.0000 C   0  0  0  0  0  0  0  0  0  0  0  0
   -6.1355   -0.2712    0.0000 N   0  0  0  0  0  4  0  0  0  0  0  0
   -5.8867   -1.7504    0.0000 C   0  0  0  0  0  0  0  0  0  0  0  0
   -7.0434   -2.7054    0.0000 C   0  0  0  0  0  0  0  0  0  0  0  0
   -4.9788    0.6839    0.0000 C   0  0  0  0  0  0  0  0  0  0  0  0
   -3.5734    0.1597    0.0000 C   0  0  0  0  0  0  0  0  0  0  0  0
   -2.1679   -0.3645    0.0000 C   0  0  0  0  0  0  0  0  0  0  0  0
   -0.7625   -0.8887    0.0000 C   0  0  0  0  0  0  0  0  0  0  0  0
    0.3942    0.0663    0.0000 O   0  0  0  0  0  0  0  0  0  0  0  0
    1.7996   -0.4579    0.0000 C   0  0  0  0  0  0  0  0  0  0  0  0
    2.0483   -1.9372    0.0000 O   0  0  0  0  0  0  0  0  0  0  0  0
    2.9563    0.4971    0.0000 C   0  0  0  0  0  0  0  0  0  0  0  0
    4.1130    1.4521    0.0000 O   0  0  0  0  0  0  0  0  0  0  0  0
    3.9113   -0.6596    0.0000 C   0  0  0  0  0  0  0  0  0  0  0  0
    3.3871   -2.0650    0.0000 C   0  0  0  0  0  0  0  0  0  0  0  0
    4.3421   -3.2217    0.0000 C   0  0  0  0  0  0  0  0  0  0  0  0
    5.8214   -2.9730    0.0000 C   0  0  0  0  0  0  0  0  0  0  0  0
    6.3456   -1.5675    0.0000 C   0  0  0  0  0  0  0  0  0  0  0  0
    5.3905   -0.4109    0.0000 C   0  0  0  0  0  0  0  0  0  0  0  0
    2.0013    1.6538    0.0000 C   0  0  0  0  0  0  0  0  0  0  0  0
    2.5255    3.0592    0.0000 C   0  0  0  0  0  0  0  0  0  0  0  0
    1.5704    4.2159    0.0000 C   0  0  0  0  0  0  0  0  0  0  0  0
    0.0912    3.9672    0.0000 C   0  0  0  0  0  0  0  0  0  0  0  0
   -0.4330    2.5617    0.0000 C   0  0  0  0  0  0  0  0  0  0  0  0
    0.5220    1.4051    0.0000 C   0  0  0  0  0  0  0  0  0  0  0  0
  1  2  1  0
  2  3  1  0
  3  4  1  0
  4  5  1  0
  3  6  1  0
  6  7  1  0
  7  8  3  0
  8  9  1  0
  9 10  1  0
 10 11  1  0
 11 12  2  0
 11 13  1  0
 13 14  1  0
 13 15  1  0
 15 16  2  0
 16 17  1  0
 17 18  2  0
 18 19  1  0
 19 20  2  0
 13 21  1  0
 21 22  1  0
 22 23  1  0
 23 24  1  0
 24 25  1  0
 25 26  1  0
 20 15  1  0
 26 21  1  0
M  CHG  1   3   1
M  END
> <Identifier>
OXYBUTYNIN

> <hERG>
1

$$$$

     RDKit          2D

 22 25  0  0  0  0  0  0  0  0999 V2000
   -3.9657    4.3911    0.0000 C   0  0  0  0  0  0  0  0  0  0  0  0
   -3.5327    2.9549    0.0000 C   0  0  0  0  0  0  0  0  0  0  0  0
   -2.0725    2.6118    0.0000 C   0  0  0  0  0  0  0  0  0  0  0  0
   -1.6395    1.1757    0.0000 N   0  0  0  0  0  4  0  0  0  0  0  0
   -2.6667    0.0826    0.0000 C   0  0  0  0  0  0  0  0  0  0  0  0
   -2.2337   -1.3535    0.0000 C   0  0  0  0  0  0  0  0  0  0  0  0
   -3.2610   -2.4466    0.0000 C   0  0  0  0  0  0  0  0  0  0  0  0
   -4.7212   -2.1035    0.0000 S   0  0  0  0  0  0  0  0  0  0  0  0
   -5.7485   -3.1965    0.0000 C   0  0  0  0  0  0  0  0  0  0  0  0
   -0.7735   -1.6966    0.0000 C   0  0  0  0  0  0  0  0  0  0  0  0
    0.2537   -0.6036    0.0000 C   0  0  0  0  0  0  0  0  0  0  0  0
    1.7140   -0.9467    0.0000 C   0  0  0  0  0  0  0  0  0  0  0  0
    2.1470   -2.3828    0.0000 C   0  0  0  0  0  0  0  0  0  0  0  0
    3.6072   -2.7259    0.0000 C   0  0  0  0  0  0  0  0  0  0  0  0
    4.6344   -1.6329    0.0000 C   0  0  0  0  0  0  0  0  0  0  0  0
    4.2015   -0.1967    0.0000 C   0  0  0  0  0  0  0  0  0  0  0  0
    2.7412    0.1464    0.0000 C   0  0  0  0  0  0  0  0  0  0  0  0
    2.3082    1.5825    0.0000 C   0  0  0  0  0  0  0  0  0  0  0  0
    3.6230    2.3046    0.0000 C   0  0  0  0  0  0  0  0  0  0  0  0
    4.7160    1.2774    0.0000 N   0  0  0  0  0  0  0  0  0  0  0  0
    0.8480    1.9256    0.0000 C   0  0  0  0  0  0  0  0  0  0  0  0
   -0.1792    0.8326    0.0000 C   0  0  0  0  0  0  0  0  0  0  0  0
  1  2  1  0
  2  3  1  0
  3  4  1  0
  4  5  1  0
  5  6  1  0
  6  7  1  1
  7  8  1  0
  8  9  1  0
  6 10  1  0
 11 10  1  1
 11 12  1  0
 12 13  2  0
 13 14  1  0
 14 15  2  0
 15 16  1  0
 16 17  2  0
 17 18  1  0
 18 19  1  0
 19 20  2  0
 18 21  1  0
 22 21  1  6
 22  4  1  0
 22 11  1  0
 17 12  1  0
 20 16  1  0
M  CHG  1   4   1
M  END
> <Identifier>
PERGOLIDE

> <hERG>
1

$$$$

     RDKit          2D

 20 22  0  0  0  0  0  0  0  0999 V2000
   -5.1344   -0.9559    0.0000 C   0  0  0  0  0  0  0  0  0  0  0  0
   -4.5478    0.4246    0.0000 C   0  0  0  0  0  0  0  0  0  0  0  0
   -3.0590    0.6070    0.0000 C   0  0  0  0  0  0  0  0  0  0  0  0
   -2.1566   -0.5913    0.0000 C   0  0  0  0  0  0  0  0  0  0  0  0
   -0.6677   -0.4090    0.0000 C   0  0  0  0  0  0  0  0  0  0  0  0
    0.2346   -1.6072    0.0000 C   0  0  0  0  0  0  0  0  0  0  0  0
    1.7235   -1.4249    0.0000 C   0  0  0  0  0  0  0  0  0  0  0  0
    2.6258   -2.6231    0.0000 C   0  0  0  0  0  0  0  0  0  0  0  0
    4.1147   -2.4408    0.0000 C   0  0  0  0  0  0  0  0  0  0  0  0
    4.7012   -1.0602    0.0000 C   0  0  0  0  0  0  0  0  0  0  0  0
    3.7989    0.1380    0.0000 C   0  0  0  0  0  0  0  0  0  0  0  0
    2.3100   -0.0443    0.0000 N   0  0  0  0  0  4  0  0  0  0  0  0
   -0.0812    0.9716    0.0000 C   0  0  0  0  0  0  0  0  0  0  0  0
    1.4077    1.1539    0.0000 C   0  0  0  0  0  0  0  0  0  0  0  0
    1.9942    2.5345    0.0000 C   0  0  0  0  0  0  0  0  0  0  0  0
    1.0919    3.7328    0.0000 C   0  0  0  0  0  0  0  0  0  0  0  0
   -0.3970    3.5504    0.0000 C   0  0  0  0  0  0  0  0  0  0  0  0
   -0.9835    2.1699    0.0000 C   0  0  0  0  0  0  0  0  0  0  0  0
   -2.7432   -1.9719    0.0000 C   0  0  0  0  0  0  0  0  0  0  0  0
   -4.2320   -2.1542    0.0000 C   0  0  0  0  0  0  0  0  0  0  0  0
  1  2  1  0
  2  3  1  0
  3  4  1  0
  4  5  1  0
  5  6  1  0
  7  6  1  1
  7  8  1  0
  8  9  1  0
  9 10  1  0
 10 11  1  0
 11 12  1  0
  5 13  1  0
 13 14  1  0
 14 15  1  0
 15 16  1  0
 16 17  1  0
 17 18  1  0
  4 19  1  0
 19 20  1  0
 20  1  1  0
 12  7  1  0
 18 13  1  0
M  CHG  1  12   1
M  END
> <Identifier>
PERHEXILENE

> <hERG>
1

$$$$

     RDKit          2D

 25 27  0  0  0  0  0  0  0  0999 V2000
    2.1480   -3.2230    0.0000 C   0  0  0  0  0  0  0  0  0  0  0  0
    2.7583   -1.8528    0.0000 C   0  0  0  0  0  0  0  0  0  0  0  0
    4.2502   -1.6963    0.0000 C   0  0  0  0  0  0  0  0  0  0  0  0
    4.8605   -0.3261    0.0000 C   0  0  0  0  0  0  0  0  0  0  0  0
    6.3524   -0.1696    0.0000 C   0  0  0  0  0  0  0  0  0  0  0  0
    6.9627    1.2006    0.0000 C   0  0  0  0  0  0  0  0  0  0  0  0
    6.0813    2.4143    0.0000 C   0  0  0  0  0  0  0  0  0  0  0  0
    4.5895    2.2578    0.0000 C   0  0  0  0  0  0  0  0  0  0  0  0
    3.9791    0.8876    0.0000 C   0  0  0  0  0  0  0  0  0  0  0  0
    1.8769   -0.6391    0.0000 N   0  0  0  0  0  4  0  0  0  0  0  0
    0.3851   -0.7956    0.0000 C   0  0  0  0  0  0  0  0  0  0  0  0
   -0.4963    0.4182    0.0000 C   0  0  0  0  0  0  0  0  0  0  0  0
   -1.9881    0.2617    0.0000 C   0  0  0  0  0  0  0  0  0  0  0  0
   -2.8696    1.4754    0.0000 C   0  0  0  0  0  0  0  0  0  0  0  0
   -2.2592    2.8456    0.0000 C   0  0  0  0  0  0  0  0  0  0  0  0
   -3.1406    4.0593    0.0000 C   0  0  0  0  0  0  0  0  0  0  0  0
   -4.6324    3.9028    0.0000 C   0  0  0  0  0  0  0  0  0  0  0  0
   -5.2428    2.5326    0.0000 C   0  0  0  0  0  0  0  0  0  0  0  0
   -4.3614    1.3189    0.0000 C   0  0  0  0  0  0  0  0  0  0  0  0
   -2.5985   -1.1085    0.0000 C   0  0  0  0  0  0  0  0  0  0  0  0
   -4.0903   -1.2650    0.0000 C   0  0  0  0  0  0  0  0  0  0  0  0
   -4.7007   -2.6352    0.0000 C   0  0  0  0  0  0  0  0  0  0  0  0
   -3.8193   -3.8489    0.0000 C   0  0  0  0  0  0  0  0  0  0  0  0
   -2.3275   -3.6924    0.0000 C   0  0  0  0  0  0  0  0  0  0  0  0
   -1.7171   -2.3222    0.0000 C   0  0  0  0  0  0  0  0  0  0  0  0
  1  2  1  0
  2  3  1  0
  3  4  1  0
  4  5  2  0
  5  6  1  0
  6  7  2  0
  7  8  1  0
  8  9  2  0
  2 10  1  0
 10 11  1  0
 11 12  1  0
 12 13  1  0
 13 14  1  0
 14 15  2  0
 15 16  1  0
 16 17  2  0
 17 18  1  0
 18 19  2  0
 13 20  1  0
 20 21  2  0
 21 22  1  0
 22 23  2  0
 23 24  1  0
 24 25  2  0
  9  4  1  0
 19 14  1  0
 25 20  1  0
M  CHG  1  10   1
M  END
> <Identifier>
PRENYLAMINE

> <hERG>
1

$$$$

     RDKit          2D

 17 17  0  0  0  0  0  0  0  0999 V2000
   -6.6600    1.0689    0.0000 C   0  0  0  0  0  0  0  0  0  0  0  0
   -5.2209    1.4919    0.0000 C   0  0  0  0  0  0  0  0  0  0  0  0
   -4.1350    0.4571    0.0000 N   0  0  0  0  0  4  0  0  0  0  0  0
   -4.4882   -1.0007    0.0000 C   0  0  0  0  0  0  0  0  0  0  0  0
   -5.9273   -1.4237    0.0000 C   0  0  0  0  0  0  0  0  0  0  0  0
   -2.6959    0.8801    0.0000 C   0  0  0  0  0  0  0  0  0  0  0  0
   -1.6100   -0.1547    0.0000 C   0  0  0  0  0  0  0  0  0  0  0  0
   -0.1709    0.2684    0.0000 N   0  0  0  0  0  0  0  0  0  0  0  0
    0.9151   -0.7664    0.0000 C   0  0  0  0  0  0  0  0  0  0  0  0
    0.5619   -2.2243    0.0000 O   0  0  0  0  0  0  0  0  0  0  0  0
    2.3542   -0.3434    0.0000 C   0  0  0  0  0  0  0  0  0  0  0  0
    2.7074    1.1144    0.0000 C   0  0  0  0  0  0  0  0  0  0  0  0
    4.1465    1.5375    0.0000 C   0  0  0  0  0  0  0  0  0  0  0  0
    5.2324    0.5027    0.0000 C   0  0  0  0  0  0  0  0  0  0  0  0
    6.6715    0.9257    0.0000 N   0  0  0  0  0  0  0  0  0  0  0  0
    4.8792   -0.9552    0.0000 C   0  0  0  0  0  0  0  0  0  0  0  0
    3.4401   -1.3782    0.0000 C   0  0  0  0  0  0  0  0  0  0  0  0
  1  2  1  0
  2  3  1  0
  3  4  1  0
  4  5  1  0
  3  6  1  0
  6  7  1  0
  7  8  1  0
  8  9  1  0
  9 10  2  0
  9 11  1  0
 11 12  2  0
 12 13  1  0
 13 14  2  0
 14 15  1  0
 14 16  1  0
 16 17  2  0
 17 11  1  0
M  CHG  1   3   1
M  END
> <Identifier>
PROCAINAMIDE

> <hERG>
1

$$$$

     RDKit          2D

 20 22  0  0  0  0  0  0  0  0999 V2000
   -2.7056    0.5283    0.0000 C   0  0  0  0  0  0  0  0  0  0  0  0
   -2.3890   -0.9379    0.0000 C   0  0  0  0  0  0  0  0  0  0  0  0
   -0.9609   -1.3968    0.0000 C   0  0  0  0  0  0  0  0  0  0  0  0
    0.1506   -0.3895    0.0000 N   0  0  0  0  0  0  0  0  0  0  0  0
    1.5787   -0.8484    0.0000 C   0  0  0  0  0  0  0  0  0  0  0  0
    1.8953   -2.3146    0.0000 C   0  0  0  0  0  0  0  0  0  0  0  0
    3.3234   -2.7734    0.0000 C   0  0  0  0  0  0  0  0  0  0  0  0
    4.4348   -1.7661    0.0000 C   0  0  0  0  0  0  0  0  0  0  0  0
    4.1182   -0.2999    0.0000 C   0  0  0  0  0  0  0  0  0  0  0  0
    2.6901    0.1590    0.0000 C   0  0  0  0  0  0  0  0  0  0  0  0
    2.3734    1.6252    0.0000 S   0  0  0  0  0  0  0  0  0  0  0  0
    0.9454    2.0840    0.0000 C   0  0  0  0  0  0  0  0  0  0  0  0
    0.6287    3.5502    0.0000 C   0  0  0  0  0  0  0  0  0  0  0  0
   -0.7994    4.0091    0.0000 C   0  0  0  0  0  0  0  0  0  0  0  0
   -1.9108    3.0018    0.0000 C   0  0  0  0  0  0  0  0  0  0  0  0
   -1.5942    1.5356    0.0000 C   0  0  0  0  0  0  0  0  0  0  0  0
   -0.1661    1.0767    0.0000 C   0  0  0  0  0  0  0  0  0  0  0  0
   -3.5004   -1.9453    0.0000 N   0  0  0  0  0  4  0  0  0  0  0  0
   -4.9285   -1.4864    0.0000 C   0  0  0  0  0  0  0  0  0  0  0  0
   -3.1838   -3.4115    0.0000 C   0  0  0  0  0  0  0  0  0  0  0  0
  1  2  1  0
  2  3  1  0
  3  4  1  0
  4  5  1  0
  5  6  2  0
  6  7  1  0
  7  8  2  0
  8  9  1  0
  9 10  2  0
 10 11  1  0
 11 12  1  0
 12 13  2  0
 13 14  1  0
 14 15  2  0
 15 16  1  0
 16 17  2  0
  2 18  1  0
 18 19  1  0
 18 20  1  0
 17  4  1  0
 10  5  1  0
 17 12  1  0
M  CHG  1  18   1
M  END
> <Identifier>
PROMETHAZINE

> <hERG>
1

$$$$

     RDKit          2D

 25 26  0  0  0  0  0  0  0  0999 V2000
   -8.1263    2.2991    0.0000 C   0  0  0  0  0  0  0  0  0  0  0  0
   -6.8576    1.4990    0.0000 C   0  0  0  0  0  0  0  0  0  0  0  0
   -5.5302    2.1976    0.0000 C   0  0  0  0  0  0  0  0  0  0  0  0
   -4.2615    1.3975    0.0000 N   0  0  0  0  0  4  0  0  0  0  0  0
   -2.9341    2.0962    0.0000 C   0  0  0  0  0  0  0  0  0  0  0  0
   -1.6654    1.2960    0.0000 C   0  0  0  0  0  0  0  0  0  0  0  0
   -1.7240   -0.2028    0.0000 O   0  0  0  0  0  0  0  0  0  0  0  0
   -0.3381    1.9947    0.0000 C   0  0  0  0  0  0  0  0  0  0  0  0
    0.9307    1.1946    0.0000 O   0  0  0  0  0  0  0  0  0  0  0  0
    2.2580    1.8933    0.0000 C   0  0  0  0  0  0  0  0  0  0  0  0
    2.3166    3.3921    0.0000 C   0  0  0  0  0  0  0  0  0  0  0  0
    3.6440    4.0908    0.0000 C   0  0  0  0  0  0  0  0  0  0  0  0
    4.9127    3.2907    0.0000 C   0  0  0  0  0  0  0  0  0  0  0  0
    4.8541    1.7918    0.0000 C   0  0  0  0  0  0  0  0  0  0  0  0
    3.5268    1.0931    0.0000 C   0  0  0  0  0  0  0  0  0  0  0  0
    3.4682   -0.4058    0.0000 C   0  0  0  0  0  0  0  0  0  0  0  0
    4.7370   -1.2059    0.0000 O   0  0  0  0  0  0  0  0  0  0  0  0
    2.1409   -1.1045    0.0000 C   0  0  0  0  0  0  0  0  0  0  0  0
    2.0823   -2.6033    0.0000 C   0  0  0  0  0  0  0  0  0  0  0  0
    0.7550   -3.3020    0.0000 C   0  0  0  0  0  0  0  0  0  0  0  0
   -0.5138   -2.5018    0.0000 C   0  0  0  0  0  0  0  0  0  0  0  0
   -1.8411   -3.2005    0.0000 C   0  0  0  0  0  0  0  0  0  0  0  0
   -1.8997   -4.6994    0.0000 C   0  0  0  0  0  0  0  0  0  0  0  0
   -0.6309   -5.4996    0.0000 C   0  0  0  0  0  0  0  0  0  0  0  0
    0.6964   -4.8009    0.0000 C   0  0  0  0  0  0  0  0  0  0  0  0
  1  2  1  0
  2  3  1  0
  3  4  1  0
  4  5  1  0
  5  6  1  0
  6  7  1  0
  6  8  1  0
  8  9  1  0
  9 10  1  0
 10 11  2  0
 11 12  1  0
 12 13  2  0
 13 14  1  0
 14 15  2  0
 15 16  1  0
 16 17  2  0
 16 18  1  0
 18 19  1  0
 19 20  1  0
 20 21  2  0
 21 22  1  0
 22 23  2  0
 23 24  1  0
 24 25  2  0
 15 10  1  0
 25 20  1  0
M  CHG  1   4   1
M  END
> <Identifier>
PROPAFENONE

> <hERG>
1

$$$$

     RDKit          2D

 21 21  0  0  0  0  0  0  0  0999 V2000
    2.7114   -5.3524    0.0000 C   0  0  0  0  0  0  0  0  0  0  0  0
    1.3511   -4.7203    0.0000 C   0  0  0  0  0  0  0  0  0  0  0  0
    1.2183   -3.2262    0.0000 C   0  0  0  0  0  0  0  0  0  0  0  0
    2.4458   -2.3642    0.0000 O   0  0  0  0  0  0  0  0  0  0  0  0
   -0.1420   -2.5942    0.0000 N   0  0  0  0  0  0  0  0  0  0  0  0
   -0.2748   -1.1001    0.0000 C   0  0  0  0  0  0  0  0  0  0  0  0
    0.9527   -0.2380    0.0000 O   0  0  0  0  0  0  0  0  0  0  0  0
   -1.6352   -0.4680    0.0000 C   0  0  0  0  0  0  0  0  0  0  0  0
   -2.8627   -1.3301    0.0000 C   0  0  0  0  0  0  0  0  0  0  0  0
   -4.2231   -0.6980    0.0000 C   0  0  0  0  0  0  0  0  0  0  0  0
   -4.3558    0.7961    0.0000 C   0  0  0  0  0  0  0  0  0  0  0  0
   -5.7162    1.4281    0.0000 N   0  0  0  0  0  0  0  0  0  0  0  0
   -3.1283    1.6581    0.0000 C   0  0  0  0  0  0  0  0  0  0  0  0
   -1.7680    1.0261    0.0000 C   0  0  0  0  0  0  0  0  0  0  0  0
   -0.5404    1.8881    0.0000 C   0  0  0  0  0  0  0  0  0  0  0  0
    0.8199    1.2561    0.0000 C   0  0  0  0  0  0  0  0  0  0  0  0
    2.0474    2.1182    0.0000 N   0  0  0  0  0  4  0  0  0  0  0  0
    3.4078    1.4861    0.0000 C   0  0  0  0  0  0  0  0  0  0  0  0
    4.6353    2.3482    0.0000 C   0  0  0  0  0  0  0  0  0  0  0  0
    1.9146    3.6123    0.0000 C   0  0  0  0  0  0  0  0  0  0  0  0
    3.1422    4.4743    0.0000 C   0  0  0  0  0  0  0  0  0  0  0  0
  1  2  1  0
  2  3  1  0
  3  4  2  0
  3  5  1  0
  5  6  1  0
  6  7  2  0
  6  8  1  0
  8  9  2  0
  9 10  1  0
 10 11  2  0
 11 12  1  0
 11 13  1  0
 13 14  2  0
 14 15  1  0
 15 16  1  0
 16 17  1  0
 17 18  1  0
 18 19  1  0
 17 20  1  0
 20 21  1  0
 14  8  1  0
M  CHG  1  17   1
M  END
> <Identifier>
PROPIONYLPROCAINAMIDE-N

> <hERG>
1

$$$$

     RDKit          2D

 19 20  0  0  0  0  0  0  0  0999 V2000
   -7.5601    0.7524    0.0000 C   0  0  0  0  0  0  0  0  0  0  0  0
   -6.3021   -0.0646    0.0000 C   0  0  0  0  0  0  0  0  0  0  0  0
   -6.3807   -1.5625    0.0000 C   0  0  0  0  0  0  0  0  0  0  0  0
   -4.9656    0.6163    0.0000 N   0  0  0  0  0  4  0  0  0  0  0  0
   -3.7076   -0.2007    0.0000 C   0  0  0  0  0  0  0  0  0  0  0  0
   -2.3711    0.4802    0.0000 C   0  0  0  0  0  0  0  0  0  0  0  0
   -2.2925    1.9781    0.0000 O   0  0  0  0  0  0  0  0  0  0  0  0
   -1.1131   -0.3369    0.0000 C   0  0  0  0  0  0  0  0  0  0  0  0
    0.2234    0.3440    0.0000 O   0  0  0  0  0  0  0  0  0  0  0  0
    1.4814   -0.4730    0.0000 C   0  0  0  0  0  0  0  0  0  0  0  0
    1.4028   -1.9709    0.0000 C   0  0  0  0  0  0  0  0  0  0  0  0
    2.6608   -2.7880    0.0000 C   0  0  0  0  0  0  0  0  0  0  0  0
    3.9973   -2.1071    0.0000 C   0  0  0  0  0  0  0  0  0  0  0  0
    4.0759   -0.6091    0.0000 C   0  0  0  0  0  0  0  0  0  0  0  0
    5.4125    0.0718    0.0000 C   0  0  0  0  0  0  0  0  0  0  0  0
    5.4911    1.5697    0.0000 C   0  0  0  0  0  0  0  0  0  0  0  0
    4.2331    2.3867    0.0000 C   0  0  0  0  0  0  0  0  0  0  0  0
    2.8966    1.7058    0.0000 C   0  0  0  0  0  0  0  0  0  0  0  0
    2.8180    0.2079    0.0000 C   0  0  0  0  0  0  0  0  0  0  0  0
  1  2  1  0
  2  3  1  0
  2  4  1  0
  4  5  1  0
  5  6  1  0
  6  7  1  0
  6  8  1  0
  8  9  1  0
  9 10  1  0
 10 11  2  0
 11 12  1  0
 12 13  2  0
 13 14  1  0
 14 15  2  0
 15 16  1  0
 16 17  2  0
 17 18  1  0
 18 19  2  0
 19 10  1  0
 19 14  1  0
M  CHG  1   4   1
M  END
> <Identifier>
PROPRANOLOL

> <hERG>
1

$$$$

     RDKit          2D

 30 34  0  0  0  0  0  0  0  0999 V2000
    3.0971    2.5503    0.0000 C   0  0  0  0  0  0  0  0  0  0  0  0
    4.1869    1.5196    0.0000 C   0  0  0  0  0  0  0  0  0  0  0  0
    5.6244    1.9480    0.0000 N   0  0  0  0  0  0  0  0  0  0  0  0
    6.7141    0.9172    0.0000 C   0  0  0  0  0  0  0  0  0  0  0  0
    6.3664   -0.5419    0.0000 N   0  0  0  0  0  4  0  0  0  0  0  0
    7.4561   -1.5727    0.0000 C   0  0  0  0  0  0  0  0  0  0  0  0
    8.8936   -1.1443    0.0000 C   0  0  0  0  0  0  0  0  0  0  0  0
    9.2414    0.3148    0.0000 C   0  0  0  0  0  0  0  0  0  0  0  0
    8.1517    1.3456    0.0000 C   0  0  0  0  0  0  0  0  0  0  0  0
    4.9288   -0.9703    0.0000 C   0  0  0  0  0  0  0  0  0  0  0  0
    4.5810   -2.4294    0.0000 O   0  0  0  0  0  0  0  0  0  0  0  0
    3.8391    0.0605    0.0000 C   0  0  0  0  0  0  0  0  0  0  0  0
    2.4016   -0.3679    0.0000 C   0  0  0  0  0  0  0  0  0  0  0  0
    1.3118    0.6628    0.0000 C   0  0  0  0  0  0  0  0  0  0  0  0
   -0.1257    0.2345    0.0000 N   0  0  0  0  0  4  0  0  0  0  0  0
   -1.2155    1.2652    0.0000 C   0  0  0  0  0  0  0  0  0  0  0  0
   -2.6530    0.8368    0.0000 C   0  0  0  0  0  0  0  0  0  0  0  0
   -3.0008   -0.6223    0.0000 C   0  0  0  0  0  0  0  0  0  0  0  0
   -4.4383   -1.0506    0.0000 C   0  0  0  0  0  0  0  0  0  0  0  0
   -4.9367   -2.4654    0.0000 N   0  0  0  0  0  0  0  0  0  0  0  0
   -6.4363   -2.4286    0.0000 O   0  0  0  0  0  0  0  0  0  0  0  0
   -6.8646   -0.9911    0.0000 C   0  0  0  0  0  0  0  0  0  0  0  0
   -8.2196   -0.3475    0.0000 C   0  0  0  0  0  0  0  0  0  0  0  0
   -8.3397    1.1477    0.0000 C   0  0  0  0  0  0  0  0  0  0  0  0
   -9.6946    1.7912    0.0000 F   0  0  0  0  0  0  0  0  0  0  0  0
   -7.1049    1.9993    0.0000 C   0  0  0  0  0  0  0  0  0  0  0  0
   -5.7500    1.3557    0.0000 C   0  0  0  0  0  0  0  0  0  0  0  0
   -5.6298   -0.1395    0.0000 C   0  0  0  0  0  0  0  0  0  0  0  0
   -1.9110   -1.6530    0.0000 C   0  0  0  0  0  0  0  0  0  0  0  0
   -0.4735   -1.2247    0.0000 C   0  0  0  0  0  0  0  0  0  0  0  0
  1  2  1  0
  2  3  2  0
  3  4  1  0
  4  5  2  0
  5  6  1  0
  6  7  1  0
  7  8  1  0
  8  9  1  0
  5 10  1  0
 10 11  2  0
 10 12  1  0
 12 13  1  0
 13 14  1  0
 14 15  1  0
 15 16  1  0
 16 17  1  0
 17 18  1  0
 18 19  1  0
 19 20  2  0
 20 21  1  0
 21 22  1  0
 22 23  2  0
 23 24  1  0
 24 25  1  0
 24 26  2  0
 26 27  1  0
 27 28  2  0
 18 29  1  0
 29 30  1  0
 12  2  1  0
 30 15  1  0
  9  4  1  0
 28 19  1  0
 28 22  1  0
M  CHG  2   5   1  15   1
M  END
> <Identifier>
RISPERIDONE

> <hERG>
1

$$$$

     RDKit          2D

 58 60  0  0  0  0  0  0  0  0999 V2000
   -0.4931   -6.6687    0.0000 C   0  0  0  0  0  0  0  0  0  0  0  0
    0.7640   -5.8503    0.0000 C   0  0  0  0  0  0  0  0  0  0  0  0
    0.6838   -4.3525    0.0000 C   0  0  0  0  0  0  0  0  0  0  0  0
   -0.7943   -4.0973    0.0000 O   0  0  0  0  0  0  0  0  0  0  0  0
   -2.0154   -3.2261    0.0000 C   0  0  0  0  0  0  0  0  0  0  0  0
   -3.1365   -4.2227    0.0000 O   0  0  0  0  0  0  0  0  0  0  0  0
   -2.7375   -1.9114    0.0000 C   0  0  0  0  0  0  0  0  0  0  0  0
   -3.9076   -2.5849    0.0000 C   0  0  0  0  0  0  0  0  0  0  0  0
   -2.8177   -0.4135    0.0000 C   0  0  0  0  0  0  0  0  0  0  0  0
   -4.2959   -0.1584    0.0000 O   0  0  0  0  0  0  0  0  0  0  0  0
   -5.2559   -1.3110    0.0000 C   0  0  0  0  0  0  0  0  0  0  0  0
   -6.7340   -1.0558    0.0000 C   0  0  0  0  0  0  0  0  0  0  0  0
   -7.6940   -2.2084    0.0000 C   0  0  0  0  0  0  0  0  0  0  0  0
   -8.9904   -2.9631    0.0000 C   0  0  0  0  0  0  0  0  0  0  0  0
   -8.6624   -1.0628    0.0000 O   0  0  0  0  0  0  0  0  0  0  0  0
  -10.1386   -1.3286    0.0000 C   0  0  0  0  0  0  0  0  0  0  0  0
   -7.1759   -3.6160    0.0000 C   0  0  0  0  0  0  0  0  0  0  0  0
   -8.1359   -4.7686    0.0000 O   0  0  0  0  0  0  0  0  0  0  0  0
   -5.6978   -3.8712    0.0000 C   0  0  0  0  0  0  0  0  0  0  0  0
   -5.1797   -5.2789    0.0000 C   0  0  0  0  0  0  0  0  0  0  0  0
   -4.7378   -2.7186    0.0000 O   0  0  0  0  0  0  0  0  0  0  0  0
   -2.2401    0.9708    0.0000 C   0  0  0  0  0  0  0  0  0  0  0  0
   -3.4611    1.8420    0.0000 C   0  0  0  0  0  0  0  0  0  0  0  0
   -1.1190    1.9674    0.0000 C   0  0  0  0  0  0  0  0  0  0  0  0
   -1.8411    3.2821    0.0000 O   0  0  0  0  0  0  0  0  0  0  0  0
   -1.0636    4.5648    0.0000 C   0  0  0  0  0  0  0  0  0  0  0  0
    0.4361    4.5329    0.0000 O   0  0  0  0  0  0  0  0  0  0  0  0
    1.2136    5.8156    0.0000 C   0  0  0  0  0  0  0  0  0  0  0  0
    2.7132    5.7836    0.0000 C   0  0  0  0  0  0  0  0  0  0  0  0
    0.4914    7.1303    0.0000 C   0  0  0  0  0  0  0  0  0  0  0  0
   -1.0082    7.1623    0.0000 C   0  0  0  0  0  0  0  0  0  0  0  0
   -1.7304    8.4771    0.0000 N   0  0  0  0  0  4  0  0  0  0  0  0
   -0.9528    9.7598    0.0000 C   0  0  0  0  0  0  0  0  0  0  0  0
   -3.2300    8.5090    0.0000 C   0  0  0  0  0  0  0  0  0  0  0  0
   -1.7857    5.8796    0.0000 C   0  0  0  0  0  0  0  0  0  0  0  0
   -3.2854    5.9115    0.0000 O   0  0  0  0  0  0  0  0  0  0  0  0
    0.3235    2.3788    0.0000 C   0  0  0  0  0  0  0  0  0  0  0  0
   -0.5866    3.5712    0.0000 C   0  0  0  0  0  0  0  0  0  0  0  0
    1.1010    3.6616    0.0000 O   0  0  0  0  0  0  0  0  0  0  0  0
    1.8016    2.1237    0.0000 C   0  0  0  0  0  0  0  0  0  0  0  0
    3.0227    1.2525    0.0000 C   0  0  0  0  0  0  0  0  0  0  0  0
    4.1438    2.2491    0.0000 C   0  0  0  0  0  0  0  0  0  0  0  0
    3.7448   -0.0622    0.0000 C   0  0  0  0  0  0  0  0  0  0  0  0
    5.1873    0.3492    0.0000 N   0  0  0  0  0  0  0  0  0  0  0  0
    6.2649   -0.6942    0.0000 O   0  0  0  0  0  0  0  0  0  0  0  0
    7.7073   -0.2828    0.0000 C   0  0  0  0  0  0  0  0  0  0  0  0
    8.7849   -1.3262    0.0000 O   0  0  0  0  0  0  0  0  0  0  0  0
   10.2273   -0.9147    0.0000 C   0  0  0  0  0  0  0  0  0  0  0  0
   11.3049   -1.9582    0.0000 C   0  0  0  0  0  0  0  0  0  0  0  0
   12.7474   -1.5467    0.0000 O   0  0  0  0  0  0  0  0  0  0  0  0
   13.8250   -2.5902    0.0000 C   0  0  0  0  0  0  0  0  0  0  0  0
    3.8250   -1.5601    0.0000 C   0  0  0  0  0  0  0  0  0  0  0  0
    5.3031   -1.8152    0.0000 C   0  0  0  0  0  0  0  0  0  0  0  0
    3.2473   -2.9444    0.0000 C   0  0  0  0  0  0  0  0  0  0  0  0
    4.4684   -3.8156    0.0000 O   0  0  0  0  0  0  0  0  0  0  0  0
    2.1263   -3.9410    0.0000 C   0  0  0  0  0  0  0  0  0  0  0  0
    3.4635   -4.6205    0.0000 C   0  0  0  0  0  0  0  0  0  0  0  0
    1.9823   -5.4341    0.0000 O   0  0  0  0  0  0  0  0  0  0  0  0
  1  2  1  0
  3  2  1  1
  3  4  1  0
  4  5  1  0
  5  6  2  0
  5  7  1  0
  7  8  1  6
  7  9  1  0
  9 10  1  1
 11 10  1  6
 11 12  1  0
 12 13  1  0
 13 14  1  1
 13 15  1  0
 15 16  1  0
 13 17  1  0
 17 18  1  6
 17 19  1  0
 19 20  1  1
 19 21  1  0
  9 22  1  0
 22 23  1  6
 22 24  1  0
 24 25  1  1
 26 25  1  1
 26 27  1  0
 27 28  1  0
 28 29  1  1
 28 30  1  0
 30 31  1  0
 31 32  1  1
 32 33  1  0
 32 34  1  0
 31 35  1  0
 35 36  1  6
 24 37  1  0
 37 38  1  1
 37 39  1  0
 37 40  1  0
 40 41  1  0
 41 42  1  1
 41 43  1  0
 43 44  2  0
 44 45  1  0
 45 46  1  0
 46 47  1  0
 47 48  1  0
 48 49  1  0
 49 50  1  0
 50 51  1  0
 43 52  1  0
 52 53  1  6
 52 54  1  0
 54 55  1  1
 54 56  1  0
 56 57  1  1
 56 58  1  0
 56  3  1  0
 21 11  1  0
 35 26  1  0
M  CHG  1  32   1
M  END
> <Identifier>
ROXITHROMYCIN

> <hERG>
1

$$$$

     RDKit          2D

 27 29  0  0  0  0  0  0  0  0999 V2000
    3.4699   -4.4001    0.0000 C   0  0  0  0  0  0  0  0  0  0  0  0
    3.4927   -2.9002    0.0000 C   0  0  0  0  0  0  0  0  0  0  0  0
    2.2052   -2.1306    0.0000 C   0  0  0  0  0  0  0  0  0  0  0  0
    0.8949   -2.8608    0.0000 O   0  0  0  0  0  0  0  0  0  0  0  0
    2.2279   -0.6308    0.0000 N   0  0  0  0  0  0  0  0  0  0  0  0
    3.5382    0.0994    0.0000 C   0  0  0  0  0  0  0  0  0  0  0  0
    4.8257   -0.6702    0.0000 C   0  0  0  0  0  0  0  0  0  0  0  0
    6.1360    0.0600    0.0000 C   0  0  0  0  0  0  0  0  0  0  0  0
    6.1587    1.5599    0.0000 C   0  0  0  0  0  0  0  0  0  0  0  0
    4.8712    2.3295    0.0000 C   0  0  0  0  0  0  0  0  0  0  0  0
    3.5609    1.5993    0.0000 C   0  0  0  0  0  0  0  0  0  0  0  0
    0.9404    0.1388    0.0000 C   0  0  0  0  0  0  0  0  0  0  0  0
    1.9219    1.2731    0.0000 C   0  0  0  0  0  0  0  0  0  0  0  0
    1.4303    2.6903    0.0000 O   0  0  0  0  0  0  0  0  0  0  0  0
    2.4118    3.8246    0.0000 C   0  0  0  0  0  0  0  0  0  0  0  0
    0.4061   -1.2628    0.0000 C   0  0  0  0  0  0  0  0  0  0  0  0
   -1.0749   -1.5008    0.0000 C   0  0  0  0  0  0  0  0  0  0  0  0
   -2.0216   -0.3372    0.0000 N   0  0  0  0  0  4  0  0  0  0  0  0
   -3.5026   -0.5753    0.0000 C   0  0  0  0  0  0  0  0  0  0  0  0
   -4.4492    0.5883    0.0000 C   0  0  0  0  0  0  0  0  0  0  0  0
   -5.9302    0.3502    0.0000 C   0  0  0  0  0  0  0  0  0  0  0  0
   -6.6081   -0.9878    0.0000 C   0  0  0  0  0  0  0  0  0  0  0  0
   -8.0902   -0.7566    0.0000 C   0  0  0  0  0  0  0  0  0  0  0  0
   -8.3282    0.7244    0.0000 C   0  0  0  0  0  0  0  0  0  0  0  0
   -6.9933    1.4085    0.0000 S   0  0  0  0  0  0  0  0  0  0  0  0
   -1.4872    1.0644    0.0000 C   0  0  0  0  0  0  0  0  0  0  0  0
   -0.0062    1.3024    0.0000 C   0  0  0  0  0  0  0  0  0  0  0  0
  1  2  1  0
  2  3  1  0
  3  4  2  0
  3  5  1  0
  5  6  1  0
  6  7  2  0
  7  8  1  0
  8  9  2  0
  9 10  1  0
 10 11  2  0
  5 12  1  0
 12 13  1  0
 13 14  1  0
 14 15  1  0
 12 16  1  0
 16 17  1  0
 17 18  1  0
 18 19  1  0
 19 20  1  0
 20 21  1  0
 21 22  2  0
 22 23  1  0
 23 24  2  0
 24 25  1  0
 18 26  1  0
 26 27  1  0
 11  6  1  0
 27 12  1  0
 25 21  1  0
M  CHG  1  18   1
M  END
> <Identifier>
SUFENTANIL

> <hERG>
1

$$$$

     RDKit          2D

 21 22  0  0  0  0  0  0  0  0999 V2000
   -2.0184    3.1278    0.0000 C   0  0  0  0  0  0  0  0  0  0  0  0
   -1.2907    1.8162    0.0000 C   0  0  0  0  0  0  0  0  0  0  0  0
    0.2091    1.7906    0.0000 C   0  0  0  0  0  0  0  0  0  0  0  0
    0.9369    0.4790    0.0000 C   0  0  0  0  0  0  0  0  0  0  0  0
    2.4366    0.4534    0.0000 C   0  0  0  0  0  0  0  0  0  0  0  0
    3.1644   -0.8582    0.0000 C   0  0  0  0  0  0  0  0  0  0  0  0
    4.6642   -0.8837    0.0000 C   0  0  0  0  0  0  0  0  0  0  0  0
    5.4362    0.4023    0.0000 C   0  0  0  0  0  0  0  0  0  0  0  0
    4.7085    1.7140    0.0000 C   0  0  0  0  0  0  0  0  0  0  0  0
    3.2087    1.7395    0.0000 C   0  0  0  0  0  0  0  0  0  0  0  0
    0.1648   -0.8071    0.0000 C   0  0  0  0  0  0  0  0  0  0  0  0
   -1.3349   -0.7815    0.0000 C   0  0  0  0  0  0  0  0  0  0  0  0
   -2.1070   -2.0676    0.0000 C   0  0  0  0  0  0  0  0  0  0  0  0
   -1.3792   -3.3792    0.0000 C   0  0  0  0  0  0  0  0  0  0  0  0
    0.1206   -3.4048    0.0000 C   0  0  0  0  0  0  0  0  0  0  0  0
    0.8926   -2.1187    0.0000 C   0  0  0  0  0  0  0  0  0  0  0  0
   -2.0627    0.5301    0.0000 N   0  0  0  0  0  4  0  0  0  0  0  0
   -3.5625    0.5556    0.0000 C   0  0  0  0  0  0  0  0  0  0  0  0
   -3.5880   -0.9441    0.0000 C   0  0  0  0  0  0  0  0  0  0  0  0
   -3.5369    2.0554    0.0000 C   0  0  0  0  0  0  0  0  0  0  0  0
   -5.0623    0.5812    0.0000 C   0  0  0  0  0  0  0  0  0  0  0  0
  1  2  1  0
  2  3  1  0
  3  4  1  0
  4  5  1  0
  5  6  2  0
  6  7  1  0
  7  8  2  0
  8  9  1  0
  9 10  2  0
  4 11  1  0
 11 12  2  0
 12 13  1  0
 13 14  2  0
 14 15  1  0
 15 16  2  0
  2 17  1  0
 17 18  1  0
 18 19  1  0
 18 20  1  0
 18 21  1  0
 10  5  1  0
 16 11  1  0
M  CHG  1  17   1
M  END
> <Identifier>
TERODILINE

> <hERG>
1

$$$$

     RDKit          2D

 16 16  0  0  0  0  0  0  0  0999 V2000
   -4.9244   -0.1804    0.0000 C   0  0  0  0  0  0  0  0  0  0  0  0
   -3.6143    0.5502    0.0000 C   0  0  0  0  0  0  0  0  0  0  0  0
   -2.3266   -0.2190    0.0000 C   0  0  0  0  0  0  0  0  0  0  0  0
   -1.0165    0.5116    0.0000 C   0  0  0  0  0  0  0  0  0  0  0  0
   -0.9943    2.0114    0.0000 C   0  0  0  0  0  0  0  0  0  0  0  0
    0.2712   -0.2576    0.0000 C   0  0  0  0  0  0  0  0  0  0  0  0
   -0.7099   -1.3922    0.0000 C   0  0  0  0  0  0  0  0  0  0  0  0
   -2.1831   -1.1098    0.0000 C   0  0  0  0  0  0  0  0  0  0  0  0
    0.8051    1.1442    0.0000 C   0  0  0  0  0  0  0  0  0  0  0  0
   -0.1419    2.3074    0.0000 O   0  0  0  0  0  0  0  0  0  0  0  0
    2.2860    1.3827    0.0000 N   0  0  0  0  0  0  0  0  0  0  0  0
    3.2330    0.2194    0.0000 C   0  0  0  0  0  0  0  0  0  0  0  0
    4.7140    0.4579    0.0000 S   0  0  0  0  0  0  0  0  0  0  0  0
    2.6991   -1.1823    0.0000 N   0  0  0  0  0  0  0  0  0  0  0  0
    1.2182   -1.4208    0.0000 C   0  0  0  0  0  0  0  0  0  0  0  0
    0.6843   -2.8226    0.0000 O   0  0  0  0  0  0  0  0  0  0  0  0
  1  2  1  0
  2  3  1  0
  3  4  1  0
  4  5  1  0
  4  6  1  0
  6  7  1  0
  7  8  1  0
  6  9  1  0
  9 10  2  0
  9 11  1  0
 11 12  1  0
 12 13  2  0
 12 14  1  0
 14 15  1  0
 15 16  2  0
 15  6  1  0
M  END
> <Identifier>
THIOPENTAL

> <hERG>
1

$$$$

     RDKit          2D

 25 28  0  0  0  0  0  0  0  0999 V2000
   -0.2576    5.8887    0.0000 C   0  0  0  0  0  0  0  0  0  0  0  0
   -0.6041    4.4293    0.0000 S   0  0  0  0  0  0  0  0  0  0  0  0
    0.4866    3.3995    0.0000 C   0  0  0  0  0  0  0  0  0  0  0  0
    1.9238    3.8292    0.0000 C   0  0  0  0  0  0  0  0  0  0  0  0
    3.0144    2.7994    0.0000 C   0  0  0  0  0  0  0  0  0  0  0  0
    2.6680    1.3400    0.0000 C   0  0  0  0  0  0  0  0  0  0  0  0
    1.2308    0.9103    0.0000 C   0  0  0  0  0  0  0  0  0  0  0  0
    0.1401    1.9401    0.0000 C   0  0  0  0  0  0  0  0  0  0  0  0
    0.8843   -0.5491    0.0000 N   0  0  0  0  0  0  0  0  0  0  0  0
   -0.5528   -0.9788    0.0000 C   0  0  0  0  0  0  0  0  0  0  0  0
   -1.6435    0.0510    0.0000 C   0  0  0  0  0  0  0  0  0  0  0  0
   -3.0806   -0.3787    0.0000 C   0  0  0  0  0  0  0  0  0  0  0  0
   -4.1713    0.6511    0.0000 C   0  0  0  0  0  0  0  0  0  0  0  0
   -5.6084    0.2214    0.0000 C   0  0  0  0  0  0  0  0  0  0  0  0
   -5.9549   -1.2380    0.0000 C   0  0  0  0  0  0  0  0  0  0  0  0
   -4.8642   -2.2678    0.0000 C   0  0  0  0  0  0  0  0  0  0  0  0
   -3.4271   -1.8381    0.0000 N   0  0  0  0  0  4  0  0  0  0  0  0
   -2.3364   -2.8679    0.0000 C   0  0  0  0  0  0  0  0  0  0  0  0
    1.9750   -1.5789    0.0000 C   0  0  0  0  0  0  0  0  0  0  0  0
    1.6286   -3.0383    0.0000 C   0  0  0  0  0  0  0  0  0  0  0  0
    2.7192   -4.0681    0.0000 C   0  0  0  0  0  0  0  0  0  0  0  0
    4.1564   -3.6384    0.0000 C   0  0  0  0  0  0  0  0  0  0  0  0
    4.5028   -2.1790    0.0000 C   0  0  0  0  0  0  0  0  0  0  0  0
    3.4122   -1.1492    0.0000 C   0  0  0  0  0  0  0  0  0  0  0  0
    3.7586    0.3102    0.0000 S   0  0  0  0  0  0  0  0  0  0  0  0
  1  2  1  0
  2  3  1  0
  3  4  2  0
  4  5  1  0
  5  6  2  0
  6  7  1  0
  7  8  2  0
  7  9  1  0
  9 10  1  0
 10 11  1  0
 12 11  1  6
 12 13  1  0
 13 14  1  0
 14 15  1  0
 15 16  1  0
 16 17  1  0
 17 18  1  1
  9 19  1  0
 19 20  2  0
 20 21  1  0
 21 22  2  0
 22 23  1  0
 23 24  2  0
 24 25  1  0
  8  3  1  0
 17 12  1  0
 24 19  1  0
 25  6  1  0
M  CHG  1  17   1
M  END
> <Identifier>
THIORIDAZINE

> <hERG>
1

$$$$

     RDKit          2D

 19 21  0  0  0  0  0  0  0  0999 V2000
   -5.8763   -0.5216    0.0000 N   0  0  0  0  0  0  0  0  0  0  0  0
   -4.4152   -0.1825    0.0000 C   0  0  0  0  0  0  0  0  0  0  0  0
   -3.9783    1.2525    0.0000 N   0  0  0  0  0  0  0  0  0  0  0  0
   -2.5171    1.5916    0.0000 C   0  0  0  0  0  0  0  0  0  0  0  0
   -2.0802    3.0266    0.0000 N   0  0  0  0  0  0  0  0  0  0  0  0
   -1.4928    0.4958    0.0000 C   0  0  0  0  0  0  0  0  0  0  0  0
   -0.0317    0.8349    0.0000 N   0  0  0  0  0  0  0  0  0  0  0  0
    0.9926   -0.2609    0.0000 C   0  0  0  0  0  0  0  0  0  0  0  0
    2.4538    0.0782    0.0000 C   0  0  0  0  0  0  0  0  0  0  0  0
    3.4780   -1.0176    0.0000 C   0  0  0  0  0  0  0  0  0  0  0  0
    4.9392   -0.6785    0.0000 C   0  0  0  0  0  0  0  0  0  0  0  0
    5.3761    0.7565    0.0000 C   0  0  0  0  0  0  0  0  0  0  0  0
    4.3518    1.8523    0.0000 C   0  0  0  0  0  0  0  0  0  0  0  0
    2.8906    1.5132    0.0000 C   0  0  0  0  0  0  0  0  0  0  0  0
    0.5557   -1.6959    0.0000 C   0  0  0  0  0  0  0  0  0  0  0  0
    1.5800   -2.7917    0.0000 N   0  0  0  0  0  0  0  0  0  0  0  0
   -0.9054   -2.0350    0.0000 N   0  0  0  0  0  0  0  0  0  0  0  0
   -1.9297   -0.9392    0.0000 C   0  0  0  0  0  0  0  0  0  0  0  0
   -3.3909   -1.2783    0.0000 N   0  0  0  0  0  0  0  0  0  0  0  0
  1  2  1  0
  2  3  2  0
  3  4  1  0
  4  5  1  0
  4  6  2  0
  6  7  1  0
  7  8  2  0
  8  9  1  0
  9 10  2  0
 10 11  1  0
 11 12  2  0
 12 13  1  0
 13 14  2  0
  8 15  1  0
 15 16  1  0
 15 17  2  0
 17 18  1  0
 18 19  2  0
 19  2  1  0
 18  6  1  0
 14  9  1  0
M  END
> <Identifier>
TRIAMTERENE

> <hERG>
1

$$$$

     RDKit          2D

 22 24  0  0  0  0  0  0  0  0999 V2000
   -2.1884   -3.2564    0.0000 C   0  0  0  0  0  0  0  0  0  0  0  0
   -1.5077   -1.9198    0.0000 C   0  0  0  0  0  0  0  0  0  0  0  0
   -0.0098   -1.8409    0.0000 C   0  0  0  0  0  0  0  0  0  0  0  0
    0.6709   -0.5042    0.0000 N   0  0  0  0  0  0  0  0  0  0  0  0
    2.1705   -0.5375    0.0000 C   0  0  0  0  0  0  0  0  0  0  0  0
    2.6874   -1.9457    0.0000 C   0  0  0  0  0  0  0  0  0  0  0  0
    4.1653   -2.2021    0.0000 C   0  0  0  0  0  0  0  0  0  0  0  0
    5.1264   -1.0504    0.0000 C   0  0  0  0  0  0  0  0  0  0  0  0
    4.6095    0.3577    0.0000 C   0  0  0  0  0  0  0  0  0  0  0  0
    3.1316    0.6142    0.0000 C   0  0  0  0  0  0  0  0  0  0  0  0
    2.8303    2.0836    0.0000 C   0  0  0  0  0  0  0  0  0  0  0  0
    1.4937    2.7643    0.0000 C   0  0  0  0  0  0  0  0  0  0  0  0
    0.1281    2.1436    0.0000 C   0  0  0  0  0  0  0  0  0  0  0  0
   -0.9485    3.1880    0.0000 C   0  0  0  0  0  0  0  0  0  0  0  0
   -2.3914    2.7778    0.0000 C   0  0  0  0  0  0  0  0  0  0  0  0
   -2.7575    1.3232    0.0000 C   0  0  0  0  0  0  0  0  0  0  0  0
   -1.6809    0.2788    0.0000 C   0  0  0  0  0  0  0  0  0  0  0  0
   -0.2381    0.6890    0.0000 C   0  0  0  0  0  0  0  0  0  0  0  0
   -2.3249   -0.6619    0.0000 C   0  0  0  0  0  0  0  0  0  0  0  0
   -3.8229   -0.7408    0.0000 N   0  0  0  0  0  4  0  0  0  0  0  0
   -4.6401    0.5170    0.0000 C   0  0  0  0  0  0  0  0  0  0  0  0
   -4.5035   -2.0775    0.0000 C   0  0  0  0  0  0  0  0  0  0  0  0
  1  2  1  0
  2  3  1  0
  3  4  1  0
  4  5  1  0
  5  6  2  0
  6  7  1  0
  7  8  2  0
  8  9  1  0
  9 10  2  0
 10 11  1  0
 11 12  1  0
 12 13  1  0
 13 14  2  0
 14 15  1  0
 15 16  2  0
 16 17  1  0
 17 18  2  0
  2 19  1  0
 19 20  1  0
 20 21  1  0
 20 22  1  0
 18  4  1  0
 10  5  1  0
 18 13  1  0
M  CHG  1  20   1
M  END
> <Identifier>
TRIMIPRAMINE

> <hERG>
1

$$$$

     RDKit          2D

 20 21  0  0  0  0  0  0  0  0999 V2000
    6.2389   -1.1050    0.0000 C   0  0  0  0  0  0  0  0  0  0  0  0
    5.5404    0.2225    0.0000 O   0  0  0  0  0  0  0  0  0  0  0  0
    4.0415    0.2812    0.0000 C   0  0  0  0  0  0  0  0  0  0  0  0
    3.2412   -0.9874    0.0000 C   0  0  0  0  0  0  0  0  0  0  0  0
    1.7423   -0.9287    0.0000 C   0  0  0  0  0  0  0  0  0  0  0  0
    1.0438    0.3988    0.0000 C   0  0  0  0  0  0  0  0  0  0  0  0
   -0.4550    0.4575    0.0000 C   0  0  0  0  0  0  0  0  0  0  0  0
   -1.1536    1.7850    0.0000 C   0  0  0  0  0  0  0  0  0  0  0  0
   -2.6524    1.8438    0.0000 N   0  0  0  0  0  4  0  0  0  0  0  0
   -3.3509    3.1712    0.0000 C   0  0  0  0  0  0  0  0  0  0  0  0
   -3.4527    0.5751    0.0000 C   0  0  0  0  0  0  0  0  0  0  0  0
   -1.2554   -0.8111    0.0000 C   0  0  0  0  0  0  0  0  0  0  0  0
    0.1330   -1.3790    0.0000 O   0  0  0  0  0  0  0  0  0  0  0  0
   -2.3658    0.1974    0.0000 C   0  0  0  0  0  0  0  0  0  0  0  0
   -3.7943   -0.2600    0.0000 C   0  0  0  0  0  0  0  0  0  0  0  0
   -4.1125   -1.7259    0.0000 C   0  0  0  0  0  0  0  0  0  0  0  0
   -3.0021   -2.7344    0.0000 C   0  0  0  0  0  0  0  0  0  0  0  0
   -1.5735   -2.2770    0.0000 C   0  0  0  0  0  0  0  0  0  0  0  0
    1.8441    1.6674    0.0000 C   0  0  0  0  0  0  0  0  0  0  0  0
    3.3430    1.6087    0.0000 C   0  0  0  0  0  0  0  0  0  0  0  0
  1  2  1  0
  2  3  1  0
  3  4  2  0
  4  5  1  0
  5  6  2  0
  6  7  1  0
  7  8  1  0
  8  9  1  0
  9 10  1  0
  9 11  1  0
  7 12  1  0
 12 13  1  0
 12 14  1  0
 14 15  1  0
 15 16  1  0
 16 17  1  0
 17 18  1  0
  6 19  1  0
 19 20  2  0
 20  3  1  0
 18 12  1  0
M  CHG  1   9   1
M  END
> <Identifier>
VENLAFAXINE

> <hERG>
1

$$$$

     RDKit          2D

 33 34  0  0  0  0  0  0  0  0999 V2000
    8.7832   -3.4431    0.0000 C   0  0  0  0  0  0  0  0  0  0  0  0
    8.5749   -1.9576    0.0000 O   0  0  0  0  0  0  0  0  0  0  0  0
    7.1843   -1.3953    0.0000 C   0  0  0  0  0  0  0  0  0  0  0  0
    6.0020   -2.3184    0.0000 C   0  0  0  0  0  0  0  0  0  0  0  0
    4.6114   -1.7561    0.0000 C   0  0  0  0  0  0  0  0  0  0  0  0
    4.4031   -0.2706    0.0000 C   0  0  0  0  0  0  0  0  0  0  0  0
    3.0125    0.2917    0.0000 C   0  0  0  0  0  0  0  0  0  0  0  0
    2.8042    1.7771    0.0000 C   0  0  0  0  0  0  0  0  0  0  0  0
    1.4136    2.3395    0.0000 N   0  0  0  0  0  4  0  0  0  0  0  0
    1.2052    3.8249    0.0000 C   0  0  0  0  0  0  0  0  0  0  0  0
    0.2313    1.4163    0.0000 C   0  0  0  0  0  0  0  0  0  0  0  0
   -1.1593    1.9786    0.0000 C   0  0  0  0  0  0  0  0  0  0  0  0
   -2.3416    1.0555    0.0000 C   0  0  0  0  0  0  0  0  0  0  0  0
   -3.7322    1.6178    0.0000 C   0  0  0  0  0  0  0  0  0  0  0  0
   -3.1699    3.0084    0.0000 C   0  0  0  0  0  0  0  0  0  0  0  0
   -2.6076    4.3990    0.0000 N   0  0  0  0  0  0  0  0  0  0  0  0
   -4.2946    0.2272    0.0000 C   0  0  0  0  0  0  0  0  0  0  0  0
   -5.7800    0.0189    0.0000 C   0  0  0  0  0  0  0  0  0  0  0  0
   -6.3423   -1.3717    0.0000 C   0  0  0  0  0  0  0  0  0  0  0  0
   -5.4192   -2.5540    0.0000 C   0  0  0  0  0  0  0  0  0  0  0  0
   -5.9815   -3.9446    0.0000 O   0  0  0  0  0  0  0  0  0  0  0  0
   -7.4670   -4.1529    0.0000 C   0  0  0  0  0  0  0  0  0  0  0  0
   -3.9337   -2.3457    0.0000 C   0  0  0  0  0  0  0  0  0  0  0  0
   -3.0106   -3.5280    0.0000 O   0  0  0  0  0  0  0  0  0  0  0  0
   -1.5251   -3.3196    0.0000 C   0  0  0  0  0  0  0  0  0  0  0  0
   -3.3714   -0.9551    0.0000 C   0  0  0  0  0  0  0  0  0  0  0  0
   -5.1228    2.1802    0.0000 C   0  0  0  0  0  0  0  0  0  0  0  0
   -5.3312    3.6656    0.0000 C   0  0  0  0  0  0  0  0  0  0  0  0
   -6.3051    1.2570    0.0000 C   0  0  0  0  0  0  0  0  0  0  0  0
    5.5854    0.6525    0.0000 C   0  0  0  0  0  0  0  0  0  0  0  0
    6.9760    0.0902    0.0000 C   0  0  0  0  0  0  0  0  0  0  0  0
    8.1583    1.0133    0.0000 O   0  0  0  0  0  0  0  0  0  0  0  0
    7.9500    2.4988    0.0000 C   0  0  0  0  0  0  0  0  0  0  0  0
  1  2  1  0
  2  3  1  0
  3  4  2  0
  4  5  1  0
  5  6  2  0
  6  7  1  0
  7  8  1  0
  8  9  1  0
  9 10  1  1
  9 11  1  0
 11 12  1  0
 12 13  1  0
 14 13  1  1
 14 15  1  0
 15 16  3  0
 14 17  1  0
 17 18  2  0
 18 19  1  0
 19 20  2  0
 20 21  1  0
 21 22  1  0
 20 23  1  0
 23 24  1  0
 24 25  1  0
 23 26  2  0
 14 27  1  0
 27 28  1  0
 27 29  1  0
  6 30  1  0
 30 31  2  0
 31 32  1  0
 32 33  1  0
 31  3  1  0
 26 17  1  0
M  CHG  1   9   1
M  END
> <Identifier>
VERAPAMIL

> <hERG>
1

$$$$

     RDKit          2D

 26 30  0  0  0  0  0  0  0  0999 V2000
    1.6516   -6.2280    0.0000 C   0  0  0  0  0  0  0  0  0  0  0  0
    2.0506   -4.7821    0.0000 C   0  0  0  0  0  0  0  0  0  0  0  0
    0.9978   -3.7136    0.0000 O   0  0  0  0  0  0  0  0  0  0  0  0
    1.3968   -2.2676    0.0000 C   0  0  0  0  0  0  0  0  0  0  0  0
    2.8485   -1.8901    0.0000 O   0  0  0  0  0  0  0  0  0  0  0  0
    0.3440   -1.1991    0.0000 C   0  0  0  0  0  0  0  0  0  0  0  0
   -1.1077   -1.5766    0.0000 C   0  0  0  0  0  0  0  0  0  0  0  0
   -2.1604   -0.5081    0.0000 C   0  0  0  0  0  0  0  0  0  0  0  0
   -2.5594   -1.9540    0.0000 C   0  0  0  0  0  0  0  0  0  0  0  0
   -4.0111   -2.3315    0.0000 C   0  0  0  0  0  0  0  0  0  0  0  0
   -3.6122   -0.8855    0.0000 C   0  0  0  0  0  0  0  0  0  0  0  0
   -4.6649    0.1830    0.0000 C   0  0  0  0  0  0  0  0  0  0  0  0
   -4.2660    1.6289    0.0000 C   0  0  0  0  0  0  0  0  0  0  0  0
   -2.8142    2.0064    0.0000 N   0  0  0  0  0  4  0  0  0  0  0  0
   -2.0803    3.4784    0.0000 C   0  0  0  0  0  0  0  0  0  0  0  0
   -0.6095    3.7731    0.0000 C   0  0  0  0  0  0  0  0  0  0  0  0
    0.3811    2.6468    0.0000 C   0  0  0  0  0  0  0  0  0  0  0  0
   -0.3097    1.3154    0.0000 C   0  0  0  0  0  0  0  0  0  0  0  0
    0.7430    0.2469    0.0000 N   0  0  0  0  0  0  0  0  0  0  0  0
    2.0845    0.9179    0.0000 C   0  0  0  0  0  0  0  0  0  0  0  0
    3.4809    0.3700    0.0000 C   0  0  0  0  0  0  0  0  0  0  0  0
    4.6536    1.3053    0.0000 C   0  0  0  0  0  0  0  0  0  0  0  0
    4.4299    2.7885    0.0000 C   0  0  0  0  0  0  0  0  0  0  0  0
    3.0336    3.3365    0.0000 C   0  0  0  0  0  0  0  0  0  0  0  0
    1.8609    2.4012    0.0000 C   0  0  0  0  0  0  0  0  0  0  0  0
   -1.7615    0.9379    0.0000 C   0  0  0  0  0  0  0  0  0  0  0  0
  1  2  1  0
  2  3  1  0
  3  4  1  0
  4  5  2  0
  4  6  1  0
  6  7  2  0
  7  8  1  0
  8  9  1  1
  9 10  1  0
  8 11  1  0
 11 12  1  0
 12 13  1  0
 13 14  1  0
 14 15  1  0
 15 16  1  0
 16 17  1  0
 17 18  2  0
 18 19  1  0
 19 20  1  0
 20 21  2  0
 21 22  1  0
 22 23  2  0
 23 24  1  0
 24 25  2  0
 18 26  1  0
 19  6  1  0
 25 20  1  0
 26  8  1  0
 26 14  1  6
 25 17  1  0
M  CHG  1  14   1
M  END
> <Identifier>
VINPOCETINE

> <hERG>
1

$$$$

     RDKit          2D

 24 24  0  0  0  0  0  0  0  0999 V2000
   -9.2763   -3.2079    0.0000 C   0  0  0  0  0  0  0  0  0  0  0  0
   -8.5283   -1.9077    0.0000 C   0  0  0  0  0  0  0  0  0  0  0  0
   -7.0283   -1.9054    0.0000 C   0  0  0  0  0  0  0  0  0  0  0  0
   -6.2803   -0.6052    0.0000 S   0  0  0  0  0  0  0  0  0  0  0  0
   -7.0323    0.6927    0.0000 O   0  0  0  0  0  0  0  0  0  0  0  0
   -4.7803   -0.6028    0.0000 C   0  0  0  0  0  0  0  0  0  0  0  0
   -4.0323    0.6974    0.0000 C   0  0  0  0  0  0  0  0  0  0  0  0
   -2.5323    0.6997    0.0000 C   0  0  0  0  0  0  0  0  0  0  0  0
   -1.7844    1.9999    0.0000 N   0  0  0  0  0  4  0  0  0  0  0  0
   -2.5364    3.2978    0.0000 C   0  0  0  0  0  0  0  0  0  0  0  0
   -4.0364    3.2954    0.0000 C   0  0  0  0  0  0  0  0  0  0  0  0
   -0.2844    2.0022    0.0000 C   0  0  0  0  0  0  0  0  0  0  0  0
    0.4677    0.7044    0.0000 C   0  0  0  0  0  0  0  0  0  0  0  0
   -0.2803   -0.5958    0.0000 O   0  0  0  0  0  0  0  0  0  0  0  0
    1.9677    0.7067    0.0000 C   0  0  0  0  0  0  0  0  0  0  0  0
    2.7197   -0.5912    0.0000 O   0  0  0  0  0  0  0  0  0  0  0  0
    4.2197   -0.5888    0.0000 C   0  0  0  0  0  0  0  0  0  0  0  0
    4.9676    0.7114    0.0000 C   0  0  0  0  0  0  0  0  0  0  0  0
    6.4676    0.7137    0.0000 C   0  0  0  0  0  0  0  0  0  0  0  0
    7.2197   -0.5841    0.0000 C   0  0  0  0  0  0  0  0  0  0  0  0
    8.7197   -0.5818    0.0000 C   0  0  0  0  0  0  0  0  0  0  0  0
   10.2197   -0.5795    0.0000 N   0  0  0  0  0  0  0  0  0  0  0  0
    6.4717   -1.8843    0.0000 C   0  0  0  0  0  0  0  0  0  0  0  0
    4.9717   -1.8867    0.0000 C   0  0  0  0  0  0  0  0  0  0  0  0
  1  2  1  0
  2  3  1  0
  3  4  1  0
  4  5  2  0
  4  6  1  0
  6  7  1  0
  7  8  1  0
  8  9  1  0
  9 10  1  0
 10 11  1  0
  9 12  1  0
 12 13  1  0
 13 14  1  0
 13 15  1  0
 15 16  1  0
 16 17  1  0
 17 18  2  0
 18 19  1  0
 19 20  2  0
 20 21  1  0
 21 22  3  0
 20 23  1  0
 23 24  2  0
 24 17  1  0
M  CHG  1   9   1
M  END
> <Identifier>
almokalant

> <hERG>
1

$$$$

     RDKit          2D

 40 44  0  0  0  0  0  0  0  0999 V2000
    8.8220   -2.6194    0.0000 Cl  0  0  0  0  0  0  0  0  0  0  0  0
    7.3954   -2.1558    0.0000 C   0  0  0  0  0  0  0  0  0  0  0  0
    6.2807   -3.1595    0.0000 C   0  0  0  0  0  0  0  0  0  0  0  0
    4.8541   -2.6960    0.0000 C   0  0  0  0  0  0  0  0  0  0  0  0
    4.5423   -1.2287    0.0000 C   0  0  0  0  0  0  0  0  0  0  0  0
    3.1157   -0.7652    0.0000 C   0  0  0  0  0  0  0  0  0  0  0  0
    2.8039    0.7021    0.0000 C   0  0  0  0  0  0  0  0  0  0  0  0
    3.9186    1.7057    0.0000 C   0  0  0  0  0  0  0  0  0  0  0  0
    3.6068    3.1730    0.0000 C   0  0  0  0  0  0  0  0  0  0  0  0
    2.1802    3.6365    0.0000 C   0  0  0  0  0  0  0  0  0  0  0  0
    1.8684    5.1038    0.0000 Cl  0  0  0  0  0  0  0  0  0  0  0  0
    1.0655    2.6329    0.0000 C   0  0  0  0  0  0  0  0  0  0  0  0
    1.3773    1.1656    0.0000 C   0  0  0  0  0  0  0  0  0  0  0  0
    2.0010   -1.7688    0.0000 N   0  0  0  0  0  0  0  0  0  0  0  0
    2.1577   -3.2606    0.0000 C   0  0  0  0  0  0  0  0  0  0  0  0
    0.7874   -3.8707    0.0000 C   0  0  0  0  0  0  0  0  0  0  0  0
   -0.2163   -2.7559    0.0000 N   0  0  0  0  0  4  0  0  0  0  0  0
   -1.7080   -2.9127    0.0000 C   0  0  0  0  0  0  0  0  0  0  0  0
   -2.5897   -1.6991    0.0000 C   0  0  0  0  0  0  0  0  0  0  0  0
   -1.9796   -0.3288    0.0000 O   0  0  0  0  0  0  0  0  0  0  0  0
   -2.8612    0.8847    0.0000 C   0  0  0  0  0  0  0  0  0  0  0  0
   -2.2511    2.2550    0.0000 C   0  0  0  0  0  0  0  0  0  0  0  0
   -0.7593    2.4118    0.0000 C   0  0  0  0  0  0  0  0  0  0  0  0
   -0.1491    3.7821    0.0000 C   0  0  0  0  0  0  0  0  0  0  0  0
   -1.0308    4.9956    0.0000 C   0  0  0  0  0  0  0  0  0  0  0  0
   -0.4206    6.3659    0.0000 Cl  0  0  0  0  0  0  0  0  0  0  0  0
   -2.5226    4.8389    0.0000 C   0  0  0  0  0  0  0  0  0  0  0  0
   -3.1327    3.4686    0.0000 C   0  0  0  0  0  0  0  0  0  0  0  0
   -4.6245    3.3118    0.0000 Cl  0  0  0  0  0  0  0  0  0  0  0  0
   -4.0815   -1.8559    0.0000 C   0  0  0  0  0  0  0  0  0  0  0  0
   -4.9631   -0.6424    0.0000 C   0  0  0  0  0  0  0  0  0  0  0  0
   -6.4549   -0.7991    0.0000 C   0  0  0  0  0  0  0  0  0  0  0  0
   -7.0651   -2.1694    0.0000 C   0  0  0  0  0  0  0  0  0  0  0  0
   -8.5568   -2.3262    0.0000 Cl  0  0  0  0  0  0  0  0  0  0  0  0
   -6.1834   -3.3830    0.0000 C   0  0  0  0  0  0  0  0  0  0  0  0
   -4.6916   -3.2262    0.0000 C   0  0  0  0  0  0  0  0  0  0  0  0
   -3.8100   -4.4398    0.0000 Cl  0  0  0  0  0  0  0  0  0  0  0  0
    0.5338   -1.4569    0.0000 C   0  0  0  0  0  0  0  0  0  0  0  0
    5.6570   -0.2251    0.0000 C   0  0  0  0  0  0  0  0  0  0  0  0
    7.0836   -0.6886    0.0000 C   0  0  0  0  0  0  0  0  0  0  0  0
  1  2  1  0
  2  3  2  0
  3  4  1  0
  4  5  2  0
  5  6  1  0
  6  7  1  0
  7  8  2  0
  8  9  1  0
  9 10  2  0
 10 11  1  0
 10 12  1  0
 12 13  2  0
  6 14  1  0
 14 15  1  0
 15 16  2  0
 16 17  1  0
 17 18  1  0
 18 19  1  0
 19 20  1  0
 20 21  1  0
 21 22  1  0
 22 23  2  0
 23 24  1  0
 24 25  2  0
 25 26  1  0
 25 27  1  0
 27 28  2  0
 28 29  1  0
 19 30  1  0
 30 31  2  0
 31 32  1  0
 32 33  2  0
 33 34  1  0
 33 35  1  0
 35 36  2  0
 36 37  1  0
 17 38  2  0
  5 39  1  0
 39 40  2  0
 40  2  1  0
 13  7  1  0
 38 14  1  0
 28 22  1  0
 36 30  1  0
M  CHG  1  17   1
M  END
> <Identifier>
bekm-1

> <hERG>
1

$$$$

     RDKit          2D

 34 40  0  0  0  0  0  0  0  0999 V2000
   -3.7084   -3.7566    0.0000 C   0  0  0  0  0  0  0  0  0  0  0  0
   -3.2216   -2.3378    0.0000 O   0  0  0  0  0  0  0  0  0  0  0  0
   -1.7495   -2.0500    0.0000 C   0  0  0  0  0  0  0  0  0  0  0  0
   -0.7641   -3.1809    0.0000 C   0  0  0  0  0  0  0  0  0  0  0  0
    0.7080   -2.8931    0.0000 C   0  0  0  0  0  0  0  0  0  0  0  0
    1.1948   -1.4742    0.0000 C   0  0  0  0  0  0  0  0  0  0  0  0
   -0.0178   -1.0054    0.0000 C   0  0  0  0  0  0  0  0  0  0  0  0
   -0.8029   -1.1589    0.0000 C   0  0  0  0  0  0  0  0  0  0  0  0
   -2.2481    0.4998    0.0000 C   0  0  0  0  0  0  0  0  0  0  0  0
   -3.2334    1.6308    0.0000 C   0  0  0  0  0  0  0  0  0  0  0  0
   -1.6845    1.3067    0.0000 O   0  0  0  0  0  0  0  0  0  0  0  0
   -3.3790   -0.4855    0.0000 C   0  0  0  0  0  0  0  0  0  0  0  0
   -4.3644    0.6454    0.0000 C   0  0  0  0  0  0  0  0  0  0  0  0
   -2.3937   -1.6165    0.0000 C   0  0  0  0  0  0  0  0  0  0  0  0
   -4.5100   -1.4709    0.0000 C   0  0  0  0  0  0  0  0  0  0  0  0
    2.6669   -1.1864    0.0000 C   0  0  0  0  0  0  0  0  0  0  0  0
    2.7361    1.0072    0.0000 C   0  0  0  0  0  0  0  0  0  0  0  0
    1.6183    2.0075    0.0000 C   0  0  0  0  0  0  0  0  0  0  0  0
    1.4859    3.5016    0.0000 C   0  0  0  0  0  0  0  0  0  0  0  0
    0.1257    4.1340    0.0000 C   0  0  0  0  0  0  0  0  0  0  0  0
   -1.1020    3.2723    0.0000 C   0  0  0  0  0  0  0  0  0  0  0  0
   -2.4622    3.9047    0.0000 O   0  0  0  0  0  0  0  0  0  0  0  0
   -0.9696    1.7782    0.0000 C   0  0  0  0  0  0  0  0  0  0  0  0
    0.3905    1.1457    0.0000 C   0  0  0  0  0  0  0  0  0  0  0  0
    0.2094   -0.3433    0.0000 C   0  0  0  0  0  0  0  0  0  0  0  0
    1.1560    0.5478    0.0000 C   0  0  0  0  0  0  0  0  0  0  0  0
    1.9411    0.7013    0.0000 C   0  0  0  0  0  0  0  0  0  0  0  0
    2.4667    0.0981    0.0000 N   0  0  0  0  0  4  0  0  0  0  0  0
    4.6258    0.5203    0.0000 C   0  0  0  0  0  0  0  0  0  0  0  0
    5.6111   -0.6107    0.0000 C   0  0  0  0  0  0  0  0  0  0  0  0
    7.0299   -1.0974    0.0000 C   0  0  0  0  0  0  0  0  0  0  0  0
    5.8990   -2.0828    0.0000 C   0  0  0  0  0  0  0  0  0  0  0  0
   -1.2627   -0.6311    0.0000 C   0  0  0  0  0  0  0  0  0  0  0  0
   -1.9914    0.6800    0.0000 O   0  0  0  0  0  0  0  0  0  0  0  0
  1  2  1  0
  2  3  1  0
  3  4  1  0
  4  5  1  0
  5  6  1  0
  6  7  1  0
  7  8  1  0
  8  9  1  0
  9 10  1  0
  9 11  1  0
  9 12  1  0
 12 13  1  0
 12 14  1  0
 12 15  1  0
  6 16  1  0
 16 17  1  0
 17 18  1  0
 18 19  2  0
 19 20  1  0
 20 21  2  0
 21 22  1  0
 21 23  1  0
 23 24  2  0
 24 25  1  0
 25 26  1  0
 26 27  1  0
 27 28  1  0
 28 29  1  0
 29 30  1  0
 30 31  1  0
 31 32  1  0
 25 33  1  0
 33 34  1  0
  8  3  1  0
 28 16  1  0
 32 30  1  0
 33  3  1  0
 25  6  1  0
 24 18  1  0
 34 23  1  0
M  CHG  1  28   1
M  END
> <Identifier>
buprenorphine

> <hERG>
1

$$$$

     RDKit          2D

 20 23  0  0  0  0  0  0  0  0999 V2000
    0.4665   -3.6453    0.0000 C   0  0  0  0  0  0  0  0  0  0  0  0
   -0.9513   -3.1558    0.0000 C   0  0  0  0  0  0  0  0  0  0  0  0
   -1.2364   -1.6831    0.0000 C   0  0  0  0  0  0  0  0  0  0  0  0
   -0.1035   -0.7000    0.0000 C   0  0  0  0  0  0  0  0  0  0  0  0
   -0.3885    0.7727    0.0000 C   0  0  0  0  0  0  0  0  0  0  0  0
   -1.8883    0.7477    0.0000 C   0  0  0  0  0  0  0  0  0  0  0  0
   -2.6598    2.0341    0.0000 C   0  0  0  0  0  0  0  0  0  0  0  0
   -4.1596    2.0092    0.0000 C   0  0  0  0  0  0  0  0  0  0  0  0
   -4.8879    0.6978    0.0000 C   0  0  0  0  0  0  0  0  0  0  0  0
   -4.1164   -0.5886    0.0000 C   0  0  0  0  0  0  0  0  0  0  0  0
   -2.6166   -0.5636    0.0000 C   0  0  0  0  0  0  0  0  0  0  0  0
   -0.1527    2.2541    0.0000 C   0  0  0  0  0  0  0  0  0  0  0  0
    1.0123    1.3091    0.0000 C   0  0  0  0  0  0  0  0  0  0  0  0
    2.4936    1.0733    0.0000 C   0  0  0  0  0  0  0  0  0  0  0  0
    3.5551    2.1331    0.0000 N   0  0  0  0  0  4  0  0  0  0  0  0
    4.8911    1.4510    0.0000 C   0  0  0  0  0  0  0  0  0  0  0  0
    4.6552   -0.0303    0.0000 C   0  0  0  0  0  0  0  0  0  0  0  0
    3.1735   -0.2638    0.0000 N   0  0  0  0  0  0  0  0  0  0  0  0
    1.3144   -1.1895    0.0000 C   0  0  0  0  0  0  0  0  0  0  0  0
    1.5994   -2.6621    0.0000 C   0  0  0  0  0  0  0  0  0  0  0  0
  1  2  2  0
  2  3  1  0
  3  4  2  0
  4  5  1  0
  5  6  1  0
  6  7  2  0
  7  8  1  0
  8  9  2  0
  9 10  1  0
 10 11  2  0
  5 12  1  0
 12 13  1  0
 13 14  1  0
 14 15  2  0
 15 16  1  0
 16 17  1  0
 17 18  1  0
  4 19  1  0
 19 20  2  0
 20  1  1  0
 13  5  1  0
 18 14  1  0
 11  6  1  0
M  CHG  1  15   1
M  END
> <Identifier>
cibenzoline

> <hERG>
1

$$$$

     RDKit          2D

 23 25  0  0  0  0  0  0  0  0999 V2000
   -1.5621   -3.5877    0.0000 C   0  0  0  0  0  0  0  0  0  0  0  0
   -0.9633   -2.2124    0.0000 C   0  0  0  0  0  0  0  0  0  0  0  0
    0.5271   -2.0434    0.0000 C   0  0  0  0  0  0  0  0  0  0  0  0
    1.1259   -0.6681    0.0000 N   0  0  0  0  0  0  0  0  0  0  0  0
    2.6164   -0.4990    0.0000 C   0  0  0  0  0  0  0  0  0  0  0  0
    3.5080   -1.7053    0.0000 C   0  0  0  0  0  0  0  0  0  0  0  0
    4.9985   -1.5362    0.0000 C   0  0  0  0  0  0  0  0  0  0  0  0
    5.5973   -0.1609    0.0000 C   0  0  0  0  0  0  0  0  0  0  0  0
    4.7056    1.0453    0.0000 C   0  0  0  0  0  0  0  0  0  0  0  0
    3.2152    0.8763    0.0000 C   0  0  0  0  0  0  0  0  0  0  0  0
    2.3236    2.0825    0.0000 S   0  0  0  0  0  0  0  0  0  0  0  0
    0.8331    1.9134    0.0000 C   0  0  0  0  0  0  0  0  0  0  0  0
   -0.0585    3.1197    0.0000 C   0  0  0  0  0  0  0  0  0  0  0  0
   -1.5489    2.9506    0.0000 C   0  0  0  0  0  0  0  0  0  0  0  0
   -2.1478    1.5753    0.0000 C   0  0  0  0  0  0  0  0  0  0  0  0
   -3.6382    1.4063    0.0000 C   0  0  0  0  0  0  0  0  0  0  0  0
   -5.1286    1.2372    0.0000 N   0  0  0  0  0  0  0  0  0  0  0  0
   -1.2561    0.3691    0.0000 C   0  0  0  0  0  0  0  0  0  0  0  0
    0.2343    0.5382    0.0000 C   0  0  0  0  0  0  0  0  0  0  0  0
   -1.8549   -1.0062    0.0000 C   0  0  0  0  0  0  0  0  0  0  0  0
   -3.3454   -1.1752    0.0000 N   0  0  0  0  0  4  0  0  0  0  0  0
   -4.2370    0.0310    0.0000 C   0  0  0  0  0  0  0  0  0  0  0  0
   -3.9442   -2.5505    0.0000 C   0  0  0  0  0  0  0  0  0  0  0  0
  1  2  1  0
  2  3  1  0
  3  4  1  0
  4  5  1  0
  5  6  2  0
  6  7  1  0
  7  8  2  0
  8  9  1  0
  9 10  2  0
 10 11  1  0
 11 12  1  0
 12 13  2  0
 13 14  1  0
 14 15  2  0
 15 16  1  0
 16 17  3  0
 15 18  1  0
 18 19  2  0
  2 20  1  0
 20 21  1  0
 21 22  1  0
 21 23  1  0
 19  4  1  0
 10  5  1  0
 19 12  1  0
M  CHG  1  21   1
M  END
> <Identifier>
cyamemazin

> <hERG>
1

$$$$

     RDKit          2D

 25 25  0  0  0  0  0  0  0  0999 V2000
  -12.4966    0.2462    0.0000 C   0  0  0  0  0  0  0  0  0  0  0  0
  -11.1373    0.8806    0.0000 C   0  0  0  0  0  0  0  0  0  0  0  0
   -9.9083    0.0206    0.0000 C   0  0  0  0  0  0  0  0  0  0  0  0
   -8.5491    0.6549    0.0000 C   0  0  0  0  0  0  0  0  0  0  0  0
   -7.3201   -0.2051    0.0000 C   0  0  0  0  0  0  0  0  0  0  0  0
   -5.9608    0.4293    0.0000 C   0  0  0  0  0  0  0  0  0  0  0  0
   -4.7318   -0.4307    0.0000 C   0  0  0  0  0  0  0  0  0  0  0  0
   -3.3726    0.2037    0.0000 C   0  0  0  0  0  0  0  0  0  0  0  0
   -2.1436   -0.6563    0.0000 C   0  0  0  0  0  0  0  0  0  0  0  0
   -2.2738   -2.1507    0.0000 O   0  0  0  0  0  0  0  0  0  0  0  0
   -0.7843   -0.0220    0.0000 N   0  0  0  0  0  0  0  0  0  0  0  0
    0.4447   -0.8820    0.0000 C   0  0  0  0  0  0  0  0  0  0  0  0
    1.8040   -0.2476    0.0000 C   0  0  0  0  0  0  0  0  0  0  0  0
    1.9342    1.2467    0.0000 C   0  0  0  0  0  0  0  0  0  0  0  0
    3.2935    1.8811    0.0000 C   0  0  0  0  0  0  0  0  0  0  0  0
    4.5225    1.0211    0.0000 C   0  0  0  0  0  0  0  0  0  0  0  0
    5.8818    1.6554    0.0000 C   0  0  0  0  0  0  0  0  0  0  0  0
    7.1108    0.7955    0.0000 C   0  0  0  0  0  0  0  0  0  0  0  0
    6.9805   -0.6989    0.0000 O   0  0  0  0  0  0  0  0  0  0  0  0
    8.4700    1.4298    0.0000 C   0  0  0  0  0  0  0  0  0  0  0  0
    9.6990    0.5698    0.0000 O   0  0  0  0  0  0  0  0  0  0  0  0
    4.3922   -0.4732    0.0000 C   0  0  0  0  0  0  0  0  0  0  0  0
    5.6212   -1.3332    0.0000 O   0  0  0  0  0  0  0  0  0  0  0  0
    5.4910   -2.8276    0.0000 C   0  0  0  0  0  0  0  0  0  0  0  0
    3.0330   -1.1076    0.0000 C   0  0  0  0  0  0  0  0  0  0  0  0
  1  2  1  0
  2  3  1  0
  3  4  1  0
  4  5  1  0
  5  6  1  0
  6  7  1  0
  7  8  1  0
  8  9  1  0
  9 10  2  0
  9 11  1  0
 11 12  1  0
 12 13  1  0
 13 14  2  0
 14 15  1  0
 15 16  2  0
 16 17  1  0
 17 18  1  0
 18 19  1  0
 18 20  1  0
 20 21  1  0
 16 22  1  0
 22 23  1  0
 23 24  1  0
 22 25  2  0
 25 13  1  0
M  END
> <Identifier>
glyceryl-nonivamide

> <hERG>
1

$$$$

     RDKit          2D

 46 49  0  0  0  0  0  0  0  0999 V2000
   -6.7456   -2.3475    0.0000 C   0  0  0  0  0  0  0  0  0  0  0  0
   -7.3100   -0.9577    0.0000 C   0  0  0  0  0  0  0  0  0  0  0  0
   -8.7958   -0.7517    0.0000 C   0  0  0  0  0  0  0  0  0  0  0  0
   -9.3603    0.6380    0.0000 C   0  0  0  0  0  0  0  0  0  0  0  0
   -8.4390    1.8217    0.0000 C   0  0  0  0  0  0  0  0  0  0  0  0
   -6.9532    1.6157    0.0000 C   0  0  0  0  0  0  0  0  0  0  0  0
   -6.0319    2.7994    0.0000 C   0  0  0  0  0  0  0  0  0  0  0  0
   -6.3887    0.2260    0.0000 C   0  0  0  0  0  0  0  0  0  0  0  0
   -4.9029    0.0199    0.0000 O   0  0  0  0  0  0  0  0  0  0  0  0
   -4.3385   -1.3698    0.0000 C   0  0  0  0  0  0  0  0  0  0  0  0
   -2.8527   -1.5758    0.0000 C   0  0  0  0  0  0  0  0  0  0  0  0
   -1.9314   -0.3921    0.0000 O   0  0  0  0  0  0  0  0  0  0  0  0
   -2.2882   -2.9656    0.0000 N   0  0  0  0  0  0  0  0  0  0  0  0
   -0.8025   -3.1716    0.0000 C   0  0  0  0  0  0  0  0  0  0  0  0
   -0.2380   -4.5614    0.0000 C   0  0  0  0  0  0  0  0  0  0  0  0
    1.2478   -4.7674    0.0000 C   0  0  0  0  0  0  0  0  0  0  0  0
    1.8122   -6.1572    0.0000 C   0  0  0  0  0  0  0  0  0  0  0  0
    3.2980   -6.3632    0.0000 C   0  0  0  0  0  0  0  0  0  0  0  0
    4.2193   -5.1795    0.0000 C   0  0  0  0  0  0  0  0  0  0  0  0
    3.6549   -3.7897    0.0000 C   0  0  0  0  0  0  0  0  0  0  0  0
    2.1691   -3.5837    0.0000 C   0  0  0  0  0  0  0  0  0  0  0  0
    0.1189   -1.9879    0.0000 C   0  0  0  0  0  0  0  0  0  0  0  0
   -0.4456   -0.5982    0.0000 O   0  0  0  0  0  0  0  0  0  0  0  0
    1.6046   -2.1940    0.0000 C   0  0  0  0  0  0  0  0  0  0  0  0
    2.5260   -1.0102    0.0000 C   0  0  0  0  0  0  0  0  0  0  0  0
    4.0118   -1.2163    0.0000 C   0  0  0  0  0  0  0  0  0  0  0  0
    4.9331   -0.0326    0.0000 C   0  0  0  0  0  0  0  0  0  0  0  0
    6.4189   -0.2386    0.0000 C   0  0  0  0  0  0  0  0  0  0  0  0
    7.3402    0.9451    0.0000 C   0  0  0  0  0  0  0  0  0  0  0  0
    6.7757    2.3348    0.0000 C   0  0  0  0  0  0  0  0  0  0  0  0
    5.2899    2.5409    0.0000 C   0  0  0  0  0  0  0  0  0  0  0  0
    4.3686    1.3572    0.0000 C   0  0  0  0  0  0  0  0  0  0  0  0
    1.9615    0.3795    0.0000 N   0  0  0  0  0  0  0  0  0  0  0  0
    2.8828    1.5632    0.0000 C   0  0  0  0  0  0  0  0  0  0  0  0
    3.6755    1.6480    0.0000 O   0  0  0  0  0  0  0  0  0  0  0  0
    2.3184    2.9529    0.0000 C   0  0  0  0  0  0  0  0  0  0  0  0
    3.2397    4.1367    0.0000 C   0  0  0  0  0  0  0  0  0  0  0  0
    2.6752    5.5264    0.0000 C   0  0  0  0  0  0  0  0  0  0  0  0
    4.7255    3.9306    0.0000 C   0  0  0  0  0  0  0  0  0  0  0  0
    0.8326    3.1590    0.0000 N   0  0  0  0  0  0  0  0  0  0  0  0
    0.2681    4.5487    0.0000 C   0  0  0  0  0  0  0  0  0  0  0  0
   -1.2176    4.7548    0.0000 C   0  0  0  0  0  0  0  0  0  0  0  0
   -2.1390    3.5711    0.0000 C   0  0  0  0  0  0  0  0  0  0  0  0
   -1.5745    2.1813    0.0000 N   0  0  0  0  0  0  0  0  0  0  0  0
   -0.0887    1.9753    0.0000 C   0  0  0  0  0  0  0  0  0  0  0  0
    0.4757    0.5855    0.0000 O   0  0  0  0  0  0  0  0  0  0  0  0
  1  2  1  0
  2  3  2  0
  3  4  1  0
  4  5  2  0
  5  6  1  0
  6  7  1  0
  6  8  2  0
  8  9  1  0
  9 10  1  0
 10 11  1  0
 11 12  2  0
 11 13  1  0
 13 14  1  0
 14 15  1  0
 15 16  1  0
 16 17  2  0
 17 18  1  0
 18 19  2  0
 19 20  1  0
 20 21  2  0
 14 22  1  0
 22 23  1  0
 22 24  1  0
 24 25  1  0
 25 26  1  0
 26 27  1  0
 27 28  2  0
 28 29  1  0
 29 30  2  0
 30 31  1  0
 31 32  2  0
 25 33  1  0
 33 34  1  0
 34 35  2  0
 34 36  1  0
 36 37  1  0
 37 38  1  0
 37 39  1  0
 36 40  1  0
 40 41  1  0
 41 42  1  0
 42 43  1  0
 43 44  1  0
 44 45  1  0
 45 46  2  0
  8  2  1  0
 21 16  1  0
 32 27  1  0
 45 40  1  0
M  END
> <Identifier>
lopinavir

> <hERG>
1

$$$$

     RDKit          2D

 29 31  0  0  0  0  0  0  0  0999 V2000
    3.0972   -3.1264    0.0000 C   0  0  0  0  0  0  0  0  0  0  0  0
    1.7312   -2.5068    0.0000 C   0  0  0  0  0  0  0  0  0  0  0  0
    0.5116   -3.3800    0.0000 C   0  0  0  0  0  0  0  0  0  0  0  0
    0.6580   -4.8728    0.0000 C   0  0  0  0  0  0  0  0  0  0  0  0
   -0.8545   -2.7604    0.0000 C   0  0  0  0  0  0  0  0  0  0  0  0
   -2.0741   -3.6336    0.0000 O   0  0  0  0  0  0  0  0  0  0  0  0
   -1.0009   -1.2676    0.0000 O   0  0  0  0  0  0  0  0  0  0  0  0
   -2.3670   -0.6479    0.0000 C   0  0  0  0  0  0  0  0  0  0  0  0
   -3.5866   -1.5212    0.0000 C   0  0  0  0  0  0  0  0  0  0  0  0
   -4.9526   -0.9016    0.0000 C   0  0  0  0  0  0  0  0  0  0  0  0
   -6.1722   -1.7748    0.0000 C   0  0  0  0  0  0  0  0  0  0  0  0
   -5.0990    0.5913    0.0000 C   0  0  0  0  0  0  0  0  0  0  0  0
   -3.8794    1.4645    0.0000 C   0  0  0  0  0  0  0  0  0  0  0  0
   -4.0259    2.9573    0.0000 C   0  0  0  0  0  0  0  0  0  0  0  0
   -2.8062    3.8306    0.0000 C   0  0  0  0  0  0  0  0  0  0  0  0
   -1.4402    3.2110    0.0000 C   0  0  0  0  0  0  0  0  0  0  0  0
   -0.2206    4.0842    0.0000 C   0  0  0  0  0  0  0  0  0  0  0  0
   -1.2938    1.7181    0.0000 C   0  0  0  0  0  0  0  0  0  0  0  0
    0.0723    1.0985    0.0000 C   0  0  0  0  0  0  0  0  0  0  0  0
    1.2919    1.9717    0.0000 C   0  0  0  0  0  0  0  0  0  0  0  0
    2.6580    1.3521    0.0000 C   0  0  0  0  0  0  0  0  0  0  0  0
    3.8776    2.2254    0.0000 C   0  0  0  0  0  0  0  0  0  0  0  0
    5.2436    1.6058    0.0000 C   0  0  0  0  0  0  0  0  0  0  0  0
    6.4632    2.4790    0.0000 O   0  0  0  0  0  0  0  0  0  0  0  0
    5.3901    0.1129    0.0000 C   0  0  0  0  0  0  0  0  0  0  0  0
    4.1704   -0.7603    0.0000 C   0  0  0  0  0  0  0  0  0  0  0  0
    4.3169   -2.2531    0.0000 O   0  0  0  0  0  0  0  0  0  0  0  0
    2.8044   -0.1407    0.0000 O   0  0  0  0  0  0  0  0  0  0  0  0
   -2.5134    0.8449    0.0000 C   0  0  0  0  0  0  0  0  0  0  0  0
  1  2  1  0
  2  3  1  0
  3  4  1  0
  3  5  1  0
  5  6  2  0
  5  7  1  0
  7  8  1  0
  8  9  1  0
  9 10  1  0
 10 11  1  0
 10 12  1  0
 12 13  2  0
 13 14  1  0
 14 15  2  0
 15 16  1  0
 16 17  1  0
 16 18  1  0
 18 19  1  0
 19 20  1  0
 20 21  1  0
 21 22  1  0
 22 23  1  0
 23 24  1  0
 23 25  1  0
 25 26  1  0
 26 27  2  0
 26 28  1  0
 18 29  1  0
 29  8  1  0
 29 13  1  0
 28 21  1  0
M  END
> <Identifier>
lovastatin

> <hERG>
1

$$$$

     RDKit          2D

 24 25  0  0  0  0  0  0  0  0999 V2000
    2.0030    4.4611    0.0000 C   0  0  0  0  0  0  0  0  0  0  0  0
    2.1356    2.9670    0.0000 C   0  0  0  0  0  0  0  0  0  0  0  0
    0.9079    2.1051    0.0000 C   0  0  0  0  0  0  0  0  0  0  0  0
   -0.1233    2.7478    0.0000 O   0  0  0  0  0  0  0  0  0  0  0  0
    1.0404    0.6110    0.0000 O   0  0  0  0  0  0  0  0  0  0  0  0
   -0.1873   -0.2508    0.0000 C   0  0  0  0  0  0  0  0  0  0  0  0
    0.6746   -1.4785    0.0000 C   0  0  0  0  0  0  0  0  0  0  0  0
    2.1687   -1.3460    0.0000 C   0  0  0  0  0  0  0  0  0  0  0  0
    3.0305   -2.5737    0.0000 C   0  0  0  0  0  0  0  0  0  0  0  0
    4.5247   -2.4412    0.0000 C   0  0  0  0  0  0  0  0  0  0  0  0
    5.1570   -1.0810    0.0000 C   0  0  0  0  0  0  0  0  0  0  0  0
    4.2951    0.1467    0.0000 C   0  0  0  0  0  0  0  0  0  0  0  0
    2.8010    0.0142    0.0000 C   0  0  0  0  0  0  0  0  0  0  0  0
   -1.4150   -1.1127    0.0000 C   0  0  0  0  0  0  0  0  0  0  0  0
   -2.7752   -0.4804    0.0000 C   0  0  0  0  0  0  0  0  0  0  0  0
   -4.0029   -1.3422    0.0000 C   0  0  0  0  0  0  0  0  0  0  0  0
   -3.8704   -2.8364    0.0000 C   0  0  0  0  0  0  0  0  0  0  0  0
   -2.5101   -3.4687    0.0000 C   0  0  0  0  0  0  0  0  0  0  0  0
   -1.2824   -2.6068    0.0000 C   0  0  0  0  0  0  0  0  0  0  0  0
   -1.0491    0.9768    0.0000 C   0  0  0  0  0  0  0  0  0  0  0  0
   -0.6751    2.1328    0.0000 C   0  0  0  0  0  0  0  0  0  0  0  0
   -2.5433    0.8443    0.0000 C   0  0  0  0  0  0  0  0  0  0  0  0
   -3.4051    2.0720    0.0000 N   0  0  0  0  0  4  0  0  0  0  0  0
   -4.8992    1.9395    0.0000 C   0  0  0  0  0  0  0  0  0  0  0  0
  1  2  1  0
  2  3  1  0
  3  4  2  0
  3  5  1  0
  5  6  1  0
  6  7  1  0
  7  8  1  0
  8  9  2  0
  9 10  1  0
 10 11  2  0
 11 12  1  0
 12 13  2  0
  6 14  1  0
 14 15  2  0
 15 16  1  0
 16 17  2  0
 17 18  1  0
 18 19  2  0
  6 20  1  0
 20 21  1  0
 20 22  1  0
 22 23  1  0
 23 24  1  0
 13  8  1  0
 19 14  1  0
M  CHG  1  23   1
M  END
> <Identifier>
norpropoxyphene

> <hERG>
1

$$$$

     RDKit          2D

 32 33  0  0  0  0  0  0  0  0999 V2000
  -10.8816   -0.4189    0.0000 C   0  0  0  0  0  0  0  0  0  0  0  0
   -9.6003   -1.1988    0.0000 O   0  0  0  0  0  0  0  0  0  0  0  0
   -8.2843   -0.4791    0.0000 C   0  0  0  0  0  0  0  0  0  0  0  0
   -8.2495    1.0205    0.0000 C   0  0  0  0  0  0  0  0  0  0  0  0
   -6.9334    1.7402    0.0000 C   0  0  0  0  0  0  0  0  0  0  0  0
   -5.6521    0.9603    0.0000 C   0  0  0  0  0  0  0  0  0  0  0  0
   -4.3361    1.6800    0.0000 C   0  0  0  0  0  0  0  0  0  0  0  0
   -3.0548    0.9001    0.0000 C   0  0  0  0  0  0  0  0  0  0  0  0
   -1.7387    1.6198    0.0000 N   0  0  0  0  0  4  0  0  0  0  0  0
   -0.4574    0.8399    0.0000 C   0  0  0  0  0  0  0  0  0  0  0  0
    0.8587    1.5596    0.0000 C   0  0  0  0  0  0  0  0  0  0  0  0
    2.1400    0.7797    0.0000 C   0  0  0  0  0  0  0  0  0  0  0  0
    3.4561    1.4994    0.0000 C   0  0  0  0  0  0  0  0  0  0  0  0
    2.7364    2.8154    0.0000 C   0  0  0  0  0  0  0  0  0  0  0  0
    2.0167    4.1315    0.0000 N   0  0  0  0  0  0  0  0  0  0  0  0
    4.1758    0.1833    0.0000 C   0  0  0  0  0  0  0  0  0  0  0  0
    3.3959   -1.0980    0.0000 C   0  0  0  0  0  0  0  0  0  0  0  0
    4.1156   -2.4141    0.0000 C   0  0  0  0  0  0  0  0  0  0  0  0
    5.6152   -2.4488    0.0000 C   0  0  0  0  0  0  0  0  0  0  0  0
    6.3349   -3.7649    0.0000 O   0  0  0  0  0  0  0  0  0  0  0  0
    5.5550   -5.0462    0.0000 C   0  0  0  0  0  0  0  0  0  0  0  0
    6.3951   -1.1675    0.0000 C   0  0  0  0  0  0  0  0  0  0  0  0
    7.8947   -1.2023    0.0000 O   0  0  0  0  0  0  0  0  0  0  0  0
    8.6746    0.0790    0.0000 C   0  0  0  0  0  0  0  0  0  0  0  0
    5.6754    0.1485    0.0000 C   0  0  0  0  0  0  0  0  0  0  0  0
    4.7721    2.2191    0.0000 C   0  0  0  0  0  0  0  0  0  0  0  0
    4.8069    3.7187    0.0000 C   0  0  0  0  0  0  0  0  0  0  0  0
    6.0535    1.4392    0.0000 C   0  0  0  0  0  0  0  0  0  0  0  0
   -5.6869   -0.5393    0.0000 C   0  0  0  0  0  0  0  0  0  0  0  0
   -7.0030   -1.2590    0.0000 C   0  0  0  0  0  0  0  0  0  0  0  0
   -7.0377   -2.7586    0.0000 O   0  0  0  0  0  0  0  0  0  0  0  0
   -5.7564   -3.5385    0.0000 C   0  0  0  0  0  0  0  0  0  0  0  0
  1  2  1  0
  2  3  1  0
  3  4  2  0
  4  5  1  0
  5  6  2  0
  6  7  1  0
  7  8  1  0
  8  9  1  0
  9 10  1  0
 10 11  1  0
 11 12  1  0
 12 13  1  0
 13 14  1  0
 14 15  3  0
 13 16  1  0
 16 17  2  0
 17 18  1  0
 18 19  2  0
 19 20  1  0
 20 21  1  0
 19 22  1  0
 22 23  1  0
 23 24  1  0
 22 25  2  0
 13 26  1  0
 26 27  1  0
 26 28  1  0
  6 29  1  0
 29 30  2  0
 30 31  1  0
 31 32  1  0
 30  3  1  0
 25 16  1  0
M  CHG  1   9   1
M  END
> <Identifier>
norverapamil

> <hERG>
1

$$$$

     RDKit          2D

 31 33  0  0  0  0  0  0  0  0999 V2000
   -7.5569   -4.1728    0.0000 C   0  0  0  0  0  0  0  0  0  0  0  0
   -6.7895   -2.8840    0.0000 O   0  0  0  0  0  0  0  0  0  0  0  0
   -7.5219   -1.5750    0.0000 C   0  0  0  0  0  0  0  0  0  0  0  0
   -9.0218   -1.5547    0.0000 C   0  0  0  0  0  0  0  0  0  0  0  0
   -9.7542   -0.2457    0.0000 C   0  0  0  0  0  0  0  0  0  0  0  0
   -8.9868    1.0431    0.0000 C   0  0  0  0  0  0  0  0  0  0  0  0
   -7.4869    1.0229    0.0000 C   0  0  0  0  0  0  0  0  0  0  0  0
   -6.7545   -0.2861    0.0000 C   0  0  0  0  0  0  0  0  0  0  0  0
   -5.2546   -0.3064    0.0000 O   0  0  0  0  0  0  0  0  0  0  0  0
   -4.4872    0.9825    0.0000 C   0  0  0  0  0  0  0  0  0  0  0  0
   -2.9873    0.9622    0.0000 C   0  0  0  0  0  0  0  0  0  0  0  0
   -2.2549   -0.3468    0.0000 O   0  0  0  0  0  0  0  0  0  0  0  0
   -2.2199    2.2511    0.0000 C   0  0  0  0  0  0  0  0  0  0  0  0
   -0.7200    2.2308    0.0000 N   0  0  0  0  0  4  0  0  0  0  0  0
    0.0124    0.9218    0.0000 C   0  0  0  0  0  0  0  0  0  0  0  0
    1.5123    0.9016    0.0000 C   0  0  0  0  0  0  0  0  0  0  0  0
    2.2797    2.1904    0.0000 N   0  0  0  0  0  4  0  0  0  0  0  0
    3.7796    2.1702    0.0000 C   0  0  0  0  0  0  0  0  0  0  0  0
    4.5120    0.8612    0.0000 C   0  0  0  0  0  0  0  0  0  0  0  0
    3.7446   -0.4276    0.0000 O   0  0  0  0  0  0  0  0  0  0  0  0
    6.0119    0.8410    0.0000 N   0  0  0  0  0  0  0  0  0  0  0  0
    6.7443   -0.4681    0.0000 C   0  0  0  0  0  0  0  0  0  0  0  0
    5.9769   -1.7569    0.0000 C   0  0  0  0  0  0  0  0  0  0  0  0
    4.4770   -1.7367    0.0000 C   0  0  0  0  0  0  0  0  0  0  0  0
    6.7093   -3.0659    0.0000 C   0  0  0  0  0  0  0  0  0  0  0  0
    8.2092   -3.0861    0.0000 C   0  0  0  0  0  0  0  0  0  0  0  0
    8.9766   -1.7973    0.0000 C   0  0  0  0  0  0  0  0  0  0  0  0
    8.2442   -0.4883    0.0000 C   0  0  0  0  0  0  0  0  0  0  0  0
    9.0116    0.8005    0.0000 C   0  0  0  0  0  0  0  0  0  0  0  0
    1.5473    3.4994    0.0000 C   0  0  0  0  0  0  0  0  0  0  0  0
    0.0474    3.5197    0.0000 C   0  0  0  0  0  0  0  0  0  0  0  0
  1  2  1  0
  2  3  1  0
  3  4  2  0
  4  5  1  0
  5  6  2  0
  6  7  1  0
  7  8  2  0
  8  9  1  0
  9 10  1  0
 10 11  1  0
 11 12  1  0
 11 13  1  0
 13 14  1  0
 14 15  1  0
 15 16  1  0
 16 17  1  0
 17 18  1  0
 18 19  1  0
 19 20  2  0
 19 21  1  0
 21 22  1  0
 22 23  2  0
 23 24  1  0
 23 25  1  0
 25 26  2  0
 26 27  1  0
 27 28  2  0
 28 29  1  0
 17 30  1  0
 30 31  1  0
  8  3  1  0
 31 14  1  0
 28 22  1  0
M  CHG  2  14   1  17   1
M  END
> <Identifier>
ranolazine

> <hERG>
1

$$$$

     RDKit          2D

 33 34  0  0  0  0  0  0  0  0999 V2000
    5.8037    3.3384    0.0000 C   0  0  0  0  0  0  0  0  0  0  0  0
    6.3395    1.9373    0.0000 C   0  0  0  0  0  0  0  0  0  0  0  0
    5.3940    0.7729    0.0000 C   0  0  0  0  0  0  0  0  0  0  0  0
    3.9127    1.0095    0.0000 C   0  0  0  0  0  0  0  0  0  0  0  0
    2.9672   -0.1550    0.0000 C   0  0  0  0  0  0  0  0  0  0  0  0
    1.4860    0.0816    0.0000 C   0  0  0  0  0  0  0  0  0  0  0  0
    0.9503    1.4826    0.0000 C   0  0  0  0  0  0  0  0  0  0  0  0
    0.5405   -1.0829    0.0000 C   0  0  0  0  0  0  0  0  0  0  0  0
   -0.9407   -0.8463    0.0000 C   0  0  0  0  0  0  0  0  0  0  0  0
   -1.8862   -2.0108    0.0000 C   0  0  0  0  0  0  0  0  0  0  0  0
   -3.3674   -1.7742    0.0000 C   0  0  0  0  0  0  0  0  0  0  0  0
   -4.3130   -2.9387    0.0000 C   0  0  0  0  0  0  0  0  0  0  0  0
   -3.9032   -0.3732    0.0000 C   0  0  0  0  0  0  0  0  0  0  0  0
   -5.3844   -0.1366    0.0000 C   0  0  0  0  0  0  0  0  0  0  0  0
   -5.9201    1.2645    0.0000 C   0  0  0  0  0  0  0  0  0  0  0  0
   -7.4013    1.5011    0.0000 C   0  0  0  0  0  0  0  0  0  0  0  0
   -7.9371    2.9022    0.0000 C   0  0  0  0  0  0  0  0  0  0  0  0
   -8.3468    0.3366    0.0000 C   0  0  0  0  0  0  0  0  0  0  0  0
   -9.8281    0.5732    0.0000 C   0  0  0  0  0  0  0  0  0  0  0  0
  -10.7736   -0.5913    0.0000 C   0  0  0  0  0  0  0  0  0  0  0  0
  -12.2548   -0.3547    0.0000 C   0  0  0  0  0  0  0  0  0  0  0  0
  -13.2003   -1.5192    0.0000 C   0  0  0  0  0  0  0  0  0  0  0  0
  -12.7905    1.0464    0.0000 C   0  0  0  0  0  0  0  0  0  0  0  0
    5.9297   -0.6282    0.0000 C   0  0  0  0  0  0  0  0  0  0  0  0
    4.9842   -1.7927    0.0000 O   0  0  0  0  0  0  0  0  0  0  0  0
    7.4109   -0.8648    0.0000 C   0  0  0  0  0  0  0  0  0  0  0  0
    7.9466   -2.2659    0.0000 C   0  0  0  0  0  0  0  0  0  0  0  0
    9.4279   -2.5025    0.0000 C   0  0  0  0  0  0  0  0  0  0  0  0
   10.3734   -1.3380    0.0000 C   0  0  0  0  0  0  0  0  0  0  0  0
    9.8376    0.0631    0.0000 C   0  0  0  0  0  0  0  0  0  0  0  0
    8.3564    0.2997    0.0000 C   0  0  0  0  0  0  0  0  0  0  0  0
    7.8207    1.7008    0.0000 C   0  0  0  0  0  0  0  0  0  0  0  0
    8.7662    2.8652    0.0000 O   0  0  0  0  0  0  0  0  0  0  0  0
  1  2  1  0
  2  3  2  0
  3  4  1  0
  4  5  1  0
  5  6  2  0
  6  7  1  0
  6  8  1  0
  8  9  1  0
  9 10  1  0
 10 11  1  0
 11 12  1  0
 11 13  1  0
 13 14  1  0
 14 15  1  0
 15 16  1  0
 16 17  1  0
 16 18  1  0
 18 19  1  0
 19 20  1  0
 20 21  1  0
 21 22  1  0
 21 23  1  0
  3 24  1  0
 24 25  2  0
 24 26  1  0
 26 27  2  0
 27 28  1  0
 28 29  2  0
 29 30  1  0
 30 31  2  0
 31 32  1  0
 32 33  2  0
 32  2  1  0
 31 26  1  0
M  END
> <Identifier>
vitamine_K

> <hERG>
1

$$$$

     RDKit          2D

 35 38  0  0  0  0  0  0  0  0999 V2000
   -9.9678   -0.2135    0.0000 C   0  0  0  0  0  0  0  0  0  0  0  0
   -8.7774    0.6991    0.0000 C   0  0  0  0  0  0  0  0  0  0  0  0
   -7.3918    0.1245    0.0000 C   0  0  0  0  0  0  0  0  0  0  0  0
   -6.2014    1.0371    0.0000 C   0  0  0  0  0  0  0  0  0  0  0  0
   -4.8158    0.4625    0.0000 N   0  0  0  0  0  4  0  0  0  0  0  0
   -4.6207   -1.0248    0.0000 C   0  0  0  0  0  0  0  0  0  0  0  0
   -5.8111   -1.9374    0.0000 C   0  0  0  0  0  0  0  0  0  0  0  0
   -5.6159   -3.4247    0.0000 C   0  0  0  0  0  0  0  0  0  0  0  0
   -6.8064   -4.3373    0.0000 C   0  0  0  0  0  0  0  0  0  0  0  0
   -3.6254    1.3751    0.0000 C   0  0  0  0  0  0  0  0  0  0  0  0
   -2.2398    0.8005    0.0000 C   0  0  0  0  0  0  0  0  0  0  0  0
   -2.0447   -0.6868    0.0000 O   0  0  0  0  0  0  0  0  0  0  0  0
   -1.0494    1.7131    0.0000 C   0  0  0  0  0  0  0  0  0  0  0  0
   -1.2445    3.2004    0.0000 C   0  0  0  0  0  0  0  0  0  0  0  0
   -0.0541    4.1130    0.0000 C   0  0  0  0  0  0  0  0  0  0  0  0
   -0.2492    5.6002    0.0000 Cl  0  0  0  0  0  0  0  0  0  0  0  0
    1.3315    3.5384    0.0000 C   0  0  0  0  0  0  0  0  0  0  0  0
    1.5266    2.0511    0.0000 C   0  0  0  0  0  0  0  0  0  0  0  0
    0.3362    1.1385    0.0000 C   0  0  0  0  0  0  0  0  0  0  0  0
    0.8363   -0.2757    0.0000 C   0  0  0  0  0  0  0  0  0  0  0  0
    0.1200   -1.5936    0.0000 C   0  0  0  0  0  0  0  0  0  0  0  0
    0.9032   -2.8729    0.0000 C   0  0  0  0  0  0  0  0  0  0  0  0
    2.4027   -2.8343    0.0000 C   0  0  0  0  0  0  0  0  0  0  0  0
    3.1859   -4.1136    0.0000 Cl  0  0  0  0  0  0  0  0  0  0  0  0
    3.1190   -1.5164    0.0000 C   0  0  0  0  0  0  0  0  0  0  0  0
    2.3358   -0.2371    0.0000 C   0  0  0  0  0  0  0  0  0  0  0  0
    2.7624    1.2010    0.0000 C   0  0  0  0  0  0  0  0  0  0  0  0
    4.1766    1.7011    0.0000 C   0  0  0  0  0  0  0  0  0  0  0  0
    5.3168    0.7264    0.0000 C   0  0  0  0  0  0  0  0  0  0  0  0
    5.0428   -0.7484    0.0000 C   0  0  0  0  0  0  0  0  0  0  0  0
    6.1830   -1.7230    0.0000 C   0  0  0  0  0  0  0  0  0  0  0  0
    7.5972   -1.2229    0.0000 C   0  0  0  0  0  0  0  0  0  0  0  0
    8.7374   -2.1976    0.0000 Cl  0  0  0  0  0  0  0  0  0  0  0  0
    7.8712    0.2518    0.0000 C   0  0  0  0  0  0  0  0  0  0  0  0
    6.7310    1.2265    0.0000 C   0  0  0  0  0  0  0  0  0  0  0  0
  1  2  1  0
  2  3  1  0
  3  4  1  0
  4  5  1  0
  5  6  1  0
  6  7  1  0
  7  8  1  0
  8  9  1  0
  5 10  1  0
 10 11  1  0
 11 12  1  0
 11 13  1  0
 13 14  2  0
 14 15  1  0
 15 16  1  0
 15 17  2  0
 17 18  1  0
 18 19  2  0
 19 20  1  0
 20 21  2  0
 21 22  1  0
 22 23  2  0
 23 24  1  0
 23 25  1  0
 25 26  2  0
 26 27  1  0
 27 28  2  0
 28 29  1  0
 29 30  2  0
 30 31  1  0
 31 32  2  0
 32 33  1  0
 32 34  1  0
 34 35  2  0
 19 13  1  0
 26 20  1  0
 35 29  1  0
 27 18  1  0
M  CHG  1   5   1
M  END
> <Identifier>
lumefantrine

> <hERG>
1

$$$$

     RDKit          2D

 22 25  0  0  0  0  0  0  0  0999 V2000
   -5.9307   -0.9766    0.0000 F   0  0  0  0  0  0  0  0  0  0  0  0
   -4.4673   -0.6472    0.0000 C   0  0  0  0  0  0  0  0  0  0  0  0
   -4.0209    0.7848    0.0000 C   0  0  0  0  0  0  0  0  0  0  0  0
   -2.5575    1.1142    0.0000 C   0  0  0  0  0  0  0  0  0  0  0  0
   -1.5406    0.0116    0.0000 C   0  0  0  0  0  0  0  0  0  0  0  0
   -0.0407    0.0295    0.0000 C   0  0  0  0  0  0  0  0  0  0  0  0
    0.8264    1.2535    0.0000 C   0  0  0  0  0  0  0  0  0  0  0  0
    2.3200    1.1146    0.0000 C   0  0  0  0  0  0  0  0  0  0  0  0
    3.1871    2.3386    0.0000 N   0  0  0  0  0  4  0  0  0  0  0  0
    2.5606    3.7015    0.0000 C   0  0  0  0  0  0  0  0  0  0  0  0
    1.0671    3.8404    0.0000 C   0  0  0  0  0  0  0  0  0  0  0  0
    0.2000    2.6165    0.0000 C   0  0  0  0  0  0  0  0  0  0  0  0
   -1.2936    2.7554    0.0000 F   0  0  0  0  0  0  0  0  0  0  0  0
    0.4399   -1.3914    0.0000 C   0  0  0  0  0  0  0  0  0  0  0  0
    1.8719   -1.8378    0.0000 C   0  0  0  0  0  0  0  0  0  0  0  0
    3.0748   -0.9417    0.0000 C   0  0  0  0  0  0  0  0  0  0  0  0
    4.2988   -1.8088    0.0000 C   0  0  0  0  0  0  0  0  0  0  0  0
    3.8524   -3.2408    0.0000 S   0  0  0  0  0  0  0  0  0  0  0  0
    2.3525   -3.2587    0.0000 C   0  0  0  0  0  0  0  0  0  0  0  0
   -0.7630   -2.2875    0.0000 N   0  0  0  0  0  0  0  0  0  0  0  0
   -1.9870   -1.4204    0.0000 C   0  0  0  0  0  0  0  0  0  0  0  0
   -3.4504   -1.7498    0.0000 C   0  0  0  0  0  0  0  0  0  0  0  0
  1  2  1  0
  2  3  2  0
  3  4  1  0
  4  5  2  0
  5  6  1  0
  6  7  1  0
  7  8  1  0
  8  9  1  0
  9 10  1  0
 10 11  1  0
 11 12  1  0
 12 13  1  0
  6 14  2  0
 14 15  1  0
 15 16  1  0
 16 17  2  0
 17 18  1  0
 18 19  1  0
 14 20  1  0
 20 21  1  0
 21 22  2  0
 22  2  1  0
 21  5  1  0
 12  7  1  0
 19 15  2  0
M  CHG  1   9   1
M  END
> <Identifier>
Wombat1

> <hERG>
1

$$$$

     RDKit          2D

 16 17  0  0  0  0  0  0  0  0999 V2000
   -1.5792   -2.5361    0.0000 C   0  0  0  0  0  0  0  0  0  0  0  0
   -0.4167   -1.5882    0.0000 C   0  0  0  0  0  0  0  0  0  0  0  0
   -0.6564   -0.1075    0.0000 C   0  0  0  0  0  0  0  0  0  0  0  0
    0.8434   -0.1285    0.0000 C   0  0  0  0  0  0  0  0  0  0  0  0
    1.5751   -1.4379    0.0000 C   0  0  0  0  0  0  0  0  0  0  0  0
    3.0750   -1.4590    0.0000 C   0  0  0  0  0  0  0  0  0  0  0  0
    3.8431   -0.1706    0.0000 C   0  0  0  0  0  0  0  0  0  0  0  0
    3.1114    1.1388    0.0000 C   0  0  0  0  0  0  0  0  0  0  0  0
    1.6116    1.1599    0.0000 C   0  0  0  0  0  0  0  0  0  0  0  0
   -0.3752    1.3660    0.0000 C   0  0  0  0  0  0  0  0  0  0  0  0
    1.0414    1.8592    0.0000 O   0  0  0  0  0  0  0  0  0  0  0  0
   -1.5107    2.3462    0.0000 N   0  0  0  0  0  0  0  0  0  0  0  0
   -2.9273    1.8530    0.0000 C   0  0  0  0  0  0  0  0  0  0  0  0
   -3.2084    0.3795    0.0000 N   0  0  0  0  0  0  0  0  0  0  0  0
   -2.0730   -0.6007    0.0000 C   0  0  0  0  0  0  0  0  0  0  0  0
   -2.3542   -2.0741    0.0000 O   0  0  0  0  0  0  0  0  0  0  0  0
  1  2  1  0
  2  3  1  0
  3  4  1  0
  4  5  2  0
  5  6  1  0
  6  7  2  0
  7  8  1  0
  8  9  2  0
  3 10  1  0
 10 11  2  0
 10 12  1  0
 12 13  1  0
 13 14  1  0
 14 15  1  0
 15 16  2  0
 15  3  1  0
  9  4  1  0
M  END
> <Identifier>
PRIMIDONE

> <hERG>
0

$$$$

     RDKit          2D

 16 16  0  0  0  0  0  0  0  0999 V2000
   -7.0167    0.8856    0.0000 C   0  0  0  0  0  0  0  0  0  0  0  0
   -5.9813   -0.1997    0.0000 N   0  0  0  0  0  0  0  0  0  0  0  0
   -4.5237    0.1544    0.0000 N   0  0  0  0  0  0  0  0  0  0  0  0
   -3.4882   -0.9309    0.0000 C   0  0  0  0  0  0  0  0  0  0  0  0
   -2.0306   -0.5768    0.0000 C   0  0  0  0  0  0  0  0  0  0  0  0
   -1.6084    0.8625    0.0000 C   0  0  0  0  0  0  0  0  0  0  0  0
   -0.1508    1.2166    0.0000 C   0  0  0  0  0  0  0  0  0  0  0  0
    0.8846    0.1313    0.0000 C   0  0  0  0  0  0  0  0  0  0  0  0
    2.3422    0.4854    0.0000 C   0  0  0  0  0  0  0  0  0  0  0  0
    2.7644    1.9248    0.0000 O   0  0  0  0  0  0  0  0  0  0  0  0
    3.3777   -0.5999    0.0000 N   0  0  0  0  0  0  0  0  0  0  0  0
    4.8353   -0.2458    0.0000 C   0  0  0  0  0  0  0  0  0  0  0  0
    5.8707   -1.3310    0.0000 C   0  0  0  0  0  0  0  0  0  0  0  0
    5.2574    1.1936    0.0000 C   0  0  0  0  0  0  0  0  0  0  0  0
    0.4625   -1.3080    0.0000 C   0  0  0  0  0  0  0  0  0  0  0  0
   -0.9951   -1.6621    0.0000 C   0  0  0  0  0  0  0  0  0  0  0  0
  1  2  1  0
  2  3  1  0
  3  4  1  0
  4  5  1  0
  5  6  2  0
  6  7  1  0
  7  8  2  0
  8  9  1  0
  9 10  2  0
  9 11  1  0
 11 12  1  0
 12 13  1  0
 12 14  1  0
  8 15  1  0
 15 16  2  0
 16  5  1  0
M  END
> <Identifier>
PROCARBAZINE

> <hERG>
0

$$$$

     RDKit          2D

 17 17  0  0  0  0  0  0  0  0999 V2000
   -6.8169   -0.5233    0.0000 C   0  0  0  0  0  0  0  0  0  0  0  0
   -5.4464    0.0863    0.0000 C   0  0  0  0  0  0  0  0  0  0  0  0
   -5.2891    1.5780    0.0000 C   0  0  0  0  0  0  0  0  0  0  0  0
   -4.2331   -0.7958    0.0000 N   0  0  0  0  0  0  0  0  0  0  0  0
   -2.8626   -0.1861    0.0000 C   0  0  0  0  0  0  0  0  0  0  0  0
   -2.7053    1.3056    0.0000 N   0  0  0  0  0  4  0  0  0  0  0  0
   -1.6494   -1.0682    0.0000 N   0  0  0  0  0  0  0  0  0  0  0  0
   -0.2789   -0.4586    0.0000 C   0  0  0  0  0  0  0  0  0  0  0  0
   -0.1216    1.0332    0.0000 N   0  0  0  0  0  4  0  0  0  0  0  0
    0.9344   -1.3407    0.0000 N   0  0  0  0  0  0  0  0  0  0  0  0
    2.3049   -0.7310    0.0000 C   0  0  0  0  0  0  0  0  0  0  0  0
    2.4622    0.7607    0.0000 C   0  0  0  0  0  0  0  0  0  0  0  0
    3.8327    1.3704    0.0000 C   0  0  0  0  0  0  0  0  0  0  0  0
    5.0459    0.4883    0.0000 C   0  0  0  0  0  0  0  0  0  0  0  0
    6.4165    1.0979    0.0000 Cl  0  0  0  0  0  0  0  0  0  0  0  0
    4.8886   -1.0035    0.0000 C   0  0  0  0  0  0  0  0  0  0  0  0
    3.5181   -1.6131    0.0000 C   0  0  0  0  0  0  0  0  0  0  0  0
  1  2  1  0
  2  3  1  0
  2  4  1  0
  4  5  1  0
  5  6  2  0
  5  7  1  0
  7  8  1  0
  8  9  2  0
  8 10  1  0
 10 11  1  0
 11 12  2  0
 12 13  1  0
 13 14  2  0
 14 15  1  0
 14 16  1  0
 16 17  2  0
 17 11  1  0
M  CHG  2   6   1   9   1
M  END
> <Identifier>
PROGUANIL

> <hERG>
0

$$$$

     RDKit          2D

 13 13  0  0  0  0  0  0  0  0999 V2000
   -3.6594    1.8431    0.0000 C   0  0  0  0  0  0  0  0  0  0  0  0
   -2.3366    1.1359    0.0000 N   0  0  0  0  0  4  0  0  0  0  0  0
   -2.2877   -0.3633    0.0000 C   0  0  0  0  0  0  0  0  0  0  0  0
   -3.5615   -1.1553    0.0000 C   0  0  0  0  0  0  0  0  0  0  0  0
   -0.9648   -1.0705    0.0000 C   0  0  0  0  0  0  0  0  0  0  0  0
   -0.9159   -2.5697    0.0000 O   0  0  0  0  0  0  0  0  0  0  0  0
    0.3090   -0.2785    0.0000 C   0  0  0  0  0  0  0  0  0  0  0  0
    0.2601    1.2207    0.0000 C   0  0  0  0  0  0  0  0  0  0  0  0
    1.5340    2.0127    0.0000 C   0  0  0  0  0  0  0  0  0  0  0  0
    2.8568    1.3054    0.0000 C   0  0  0  0  0  0  0  0  0  0  0  0
    2.9057   -0.1938    0.0000 C   0  0  0  0  0  0  0  0  0  0  0  0
    4.2285   -0.9010    0.0000 O   0  0  0  0  0  0  0  0  0  0  0  0
    1.6318   -0.9857    0.0000 C   0  0  0  0  0  0  0  0  0  0  0  0
  1  2  1  0
  2  3  1  0
  3  4  1  6
  3  5  1  0
  5  6  1  6
  5  7  1  0
  7  8  2  0
  8  9  1  0
  9 10  2  0
 10 11  1  0
 11 12  1  0
 11 13  2  0
 13  7  1  0
M  CHG  1   2   1
M  END
> <Identifier>
PSEUDOEPHEDRINE

> <hERG>
0

$$$$

     RDKit          2D

 12 12  0  0  0  0  0  0  0  0999 V2000
   -3.4843   -0.0065    0.0000 C   0  0  0  0  0  0  0  0  0  0  0  0
   -2.0321    0.3690    0.0000 C   0  0  0  0  0  0  0  0  0  0  0  0
   -1.6312    1.8145    0.0000 N   0  0  0  0  0  0  0  0  0  0  0  0
   -0.1790    2.1900    0.0000 C   0  0  0  0  0  0  0  0  0  0  0  0
    0.8724    1.1201    0.0000 C   0  0  0  0  0  0  0  0  0  0  0  0
    2.3246    1.4956    0.0000 C   0  0  0  0  0  0  0  0  0  0  0  0
    3.3759    0.4257    0.0000 O   0  0  0  0  0  0  0  0  0  0  0  0
    0.4715   -0.3253    0.0000 C   0  0  0  0  0  0  0  0  0  0  0  0
    1.5228   -1.3952    0.0000 C   0  0  0  0  0  0  0  0  0  0  0  0
    1.1219   -2.8407    0.0000 O   0  0  0  0  0  0  0  0  0  0  0  0
   -0.9808   -0.7009    0.0000 C   0  0  0  0  0  0  0  0  0  0  0  0
   -1.3816   -2.1463    0.0000 O   0  0  0  0  0  0  0  0  0  0  0  0
  1  2  1  0
  2  3  2  0
  3  4  1  0
  4  5  2  0
  5  6  1  0
  6  7  1  0
  5  8  1  0
  8  9  1  0
  9 10  1  0
  8 11  2  0
 11 12  1  0
 11  2  1  0
M  END
> <Identifier>
PYRIDOXINE

> <hERG>
0

$$$$

     RDKit          2D

 17 18  0  0  0  0  0  0  0  0999 V2000
   -1.5285   -3.5873    0.0000 C   0  0  0  0  0  0  0  0  0  0  0  0
   -0.7063   -2.3327    0.0000 C   0  0  0  0  0  0  0  0  0  0  0  0
   -1.3818   -0.9934    0.0000 C   0  0  0  0  0  0  0  0  0  0  0  0
   -2.8794   -0.9087    0.0000 N   0  0  0  0  0  0  0  0  0  0  0  0
   -3.5549    0.4306    0.0000 C   0  0  0  0  0  0  0  0  0  0  0  0
   -5.0525    0.5153    0.0000 N   0  0  0  0  0  0  0  0  0  0  0  0
   -2.7327    1.6852    0.0000 N   0  0  0  0  0  0  0  0  0  0  0  0
   -1.2351    1.6006    0.0000 C   0  0  0  0  0  0  0  0  0  0  0  0
   -0.4130    2.8552    0.0000 N   0  0  0  0  0  0  0  0  0  0  0  0
   -0.5597    0.2613    0.0000 C   0  0  0  0  0  0  0  0  0  0  0  0
    0.9379    0.1766    0.0000 C   0  0  0  0  0  0  0  0  0  0  0  0
    1.6134   -1.1627    0.0000 C   0  0  0  0  0  0  0  0  0  0  0  0
    3.1110   -1.2474    0.0000 C   0  0  0  0  0  0  0  0  0  0  0  0
    3.9332    0.0072    0.0000 C   0  0  0  0  0  0  0  0  0  0  0  0
    5.4308   -0.0775    0.0000 Cl  0  0  0  0  0  0  0  0  0  0  0  0
    3.2577    1.3465    0.0000 C   0  0  0  0  0  0  0  0  0  0  0  0
    1.7601    1.4312    0.0000 C   0  0  0  0  0  0  0  0  0  0  0  0
  1  2  1  0
  2  3  1  0
  3  4  2  0
  4  5  1  0
  5  6  1  0
  5  7  2  0
  7  8  1  0
  8  9  1  0
  8 10  2  0
 10 11  1  0
 11 12  2  0
 12 13  1  0
 13 14  2  0
 14 15  1  0
 14 16  1  0
 16 17  2  0
 10  3  1  0
 17 11  1  0
M  END
> <Identifier>
PYRIMETHAMINE

> <hERG>
0

$$$$

     RDKit          2D

 17 18  0  0  0  0  0  0  0  0999 V2000
    4.5726   -2.2270    0.0000 N   0  0  0  0  0  0  0  0  0  0  0  0
    4.5070   -0.7285    0.0000 C   0  0  0  0  0  0  0  0  0  0  0  0
    5.7721    0.0776    0.0000 O   0  0  0  0  0  0  0  0  0  0  0  0
    3.1765   -0.0360    0.0000 C   0  0  0  0  0  0  0  0  0  0  0  0
    2.9546    1.4475    0.0000 N   0  0  0  0  0  0  0  0  0  0  0  0
    1.4751    1.6949    0.0000 C   0  0  0  0  0  0  0  0  0  0  0  0
    0.7827    0.3644    0.0000 N   0  0  0  0  0  0  0  0  0  0  0  0
   -0.7008    0.1425    0.0000 C   0  0  0  0  0  0  0  0  0  0  0  0
   -1.3933   -1.1881    0.0000 O   0  0  0  0  0  0  0  0  0  0  0  0
   -2.8728   -0.9406    0.0000 C   0  0  0  0  0  0  0  0  0  0  0  0
   -3.9426   -1.9921    0.0000 C   0  0  0  0  0  0  0  0  0  0  0  0
   -5.3881   -1.5914    0.0000 O   0  0  0  0  0  0  0  0  0  0  0  0
   -3.0947    0.5429    0.0000 C   0  0  0  0  0  0  0  0  0  0  0  0
   -4.4252    1.2354    0.0000 O   0  0  0  0  0  0  0  0  0  0  0  0
   -1.7523    1.2123    0.0000 C   0  0  0  0  0  0  0  0  0  0  0  0
   -1.5049    2.6917    0.0000 O   0  0  0  0  0  0  0  0  0  0  0  0
    1.8341   -0.7054    0.0000 N   0  0  0  0  0  0  0  0  0  0  0  0
  1  2  1  0
  2  3  2  0
  2  4  1  0
  4  5  1  0
  5  6  2  0
  6  7  1  0
  8  7  1  1
  8  9  1  0
  9 10  1  0
 10 11  1  1
 11 12  1  0
 10 13  1  0
 13 14  1  6
 13 15  1  0
 15 16  1  6
  7 17  1  0
 17  4  2  0
 15  8  1  0
M  END
> <Identifier>
RIBAVIRIN

> <hERG>
0

$$$$

     RDKit          2D

 15 16  0  0  0  0  0  0  0  0999 V2000
   -5.4577    0.3304    0.0000 N   0  0  0  0  0  0  0  0  0  0  0  0
   -3.9661    0.1714    0.0000 C   0  0  0  0  0  0  0  0  0  0  0  0
   -3.2181   -1.1287    0.0000 N   0  0  0  0  0  0  0  0  0  0  0  0
   -1.7504   -0.8191    0.0000 C   0  0  0  0  0  0  0  0  0  0  0  0
   -0.5382   -1.7025    0.0000 C   0  0  0  0  0  0  0  0  0  0  0  0
    0.8331   -1.0945    0.0000 C   0  0  0  0  0  0  0  0  0  0  0  0
    0.9921    0.3971    0.0000 C   0  0  0  0  0  0  0  0  0  0  0  0
    2.3633    1.0051    0.0000 O   0  0  0  0  0  0  0  0  0  0  0  0
    3.5755    0.1216    0.0000 C   0  0  0  0  0  0  0  0  0  0  0  0
    4.7877   -0.7619    0.0000 F   0  0  0  0  0  0  0  0  0  0  0  0
    4.4590    1.3338    0.0000 F   0  0  0  0  0  0  0  0  0  0  0  0
    2.6920   -1.0906    0.0000 F   0  0  0  0  0  0  0  0  0  0  0  0
   -0.2201    1.2806    0.0000 C   0  0  0  0  0  0  0  0  0  0  0  0
   -1.5914    0.6725    0.0000 C   0  0  0  0  0  0  0  0  0  0  0  0
   -2.9608    1.2846    0.0000 S   0  0  0  0  0  0  0  0  0  0  0  0
  1  2  1  0
  2  3  2  0
  3  4  1  0
  4  5  2  0
  5  6  1  0
  6  7  2  0
  7  8  1  0
  8  9  1  0
  9 10  1  0
  9 11  1  0
  9 12  1  0
  7 13  1  0
 13 14  2  0
 14 15  1  0
 15  2  1  0
 14  4  1  0
M  END
> <Identifier>
RILUZOLE

> <hERG>
0

$$$$

     RDKit          2D

 13 15  0  0  0  0  0  0  0  0999 V2000
   -2.6458    1.7291    0.0000 C   0  0  0  0  0  0  0  0  0  0  0  0
   -1.8200    0.4769    0.0000 C   0  0  0  0  0  0  0  0  0  0  0  0
   -2.4915   -0.8644    0.0000 N   0  0  0  0  0  4  0  0  0  0  0  0
   -0.3226    0.5659    0.0000 C   0  0  0  0  0  0  0  0  0  0  0  0
    0.5032   -0.6863    0.0000 C   0  0  0  0  0  0  0  0  0  0  0  0
    2.0005   -0.5972    0.0000 C   0  0  0  0  0  0  0  0  0  0  0  0
    2.6721    0.7440    0.0000 C   0  0  0  0  0  0  0  0  0  0  0  0
    1.8463    1.9963    0.0000 C   0  0  0  0  0  0  0  0  0  0  0  0
   -0.2574   -0.5302    0.0000 C   0  0  0  0  0  0  0  0  0  0  0  0
   -0.1684   -2.0276    0.0000 C   0  0  0  0  0  0  0  0  0  0  0  0
    1.3290   -1.9385    0.0000 C   0  0  0  0  0  0  0  0  0  0  0  0
   -0.9942   -0.7753    0.0000 C   0  0  0  0  0  0  0  0  0  0  0  0
    0.3489    1.9072    0.0000 C   0  0  0  0  0  0  0  0  0  0  0  0
  1  2  1  0
  2  3  1  0
  2  4  1  0
  4  5  1  0
  5  6  1  0
  6  7  1  0
  7  8  1  0
  8  9  1  0
  9 10  1  0
 10 11  1  0
 10 12  1  0
  8 13  1  0
 12  4  1  0
 13  4  1  0
 11  6  1  0
M  CHG  1   3   1
M  END
> <Identifier>
RIMANTADINE

> <hERG>
0

$$$$

     RDKit          2D

 18 18  0  0  0  0  0  0  0  0999 V2000
   -5.9053   -2.2007    0.0000 C   0  0  0  0  0  0  0  0  0  0  0  0
   -4.5320   -1.5973    0.0000 C   0  0  0  0  0  0  0  0  0  0  0  0
   -4.3679   -0.1063    0.0000 N   0  0  0  0  0  0  0  0  0  0  0  0
   -5.5772    0.7813    0.0000 C   0  0  0  0  0  0  0  0  0  0  0  0
   -2.9947    0.4971    0.0000 C   0  0  0  0  0  0  0  0  0  0  0  0
   -2.8306    1.9882    0.0000 O   0  0  0  0  0  0  0  0  0  0  0  0
   -1.7855   -0.3904    0.0000 O   0  0  0  0  0  0  0  0  0  0  0  0
   -0.4122    0.2130    0.0000 C   0  0  0  0  0  0  0  0  0  0  0  0
   -0.2481    1.7040    0.0000 C   0  0  0  0  0  0  0  0  0  0  0  0
    1.1251    2.3075    0.0000 C   0  0  0  0  0  0  0  0  0  0  0  0
    2.3343    1.4199    0.0000 C   0  0  0  0  0  0  0  0  0  0  0  0
    2.1703   -0.0711    0.0000 C   0  0  0  0  0  0  0  0  0  0  0  0
    3.3795   -0.9587    0.0000 C   0  0  0  0  0  0  0  0  0  0  0  0
    3.2155   -2.4497    0.0000 C   0  0  0  0  0  0  0  0  0  0  0  0
    4.7528   -0.3552    0.0000 N   0  0  0  0  0  4  0  0  0  0  0  0
    5.9620   -1.2428    0.0000 C   0  0  0  0  0  0  0  0  0  0  0  0
    4.9168    1.1358    0.0000 C   0  0  0  0  0  0  0  0  0  0  0  0
    0.7970   -0.6745    0.0000 C   0  0  0  0  0  0  0  0  0  0  0  0
  1  2  1  0
  2  3  1  0
  3  4  1  0
  3  5  1  0
  5  6  2  0
  5  7  1  0
  7  8  1  0
  8  9  2  0
  9 10  1  0
 10 11  2  0
 11 12  1  0
 12 13  1  0
 13 14  1  1
 13 15  1  0
 15 16  1  0
 15 17  1  0
 12 18  2  0
 18  8  1  0
M  CHG  1  15   1
M  END
> <Identifier>
RIVASTIGMINE

> <hERG>
0

$$$$

     RDKit          2D

 20 22  0  0  0  0  0  0  0  0999 V2000
   -7.1666    1.2403    0.0000 C   0  0  0  0  0  0  0  0  0  0  0  0
   -5.6800    1.4404    0.0000 N   0  0  0  0  0  4  0  0  0  0  0  0
   -5.1100    2.8279    0.0000 C   0  0  0  0  0  0  0  0  0  0  0  0
   -4.7634    0.2530    0.0000 C   0  0  0  0  0  0  0  0  0  0  0  0
   -3.2768    0.4531    0.0000 C   0  0  0  0  0  0  0  0  0  0  0  0
   -2.3602   -0.7343    0.0000 C   0  0  0  0  0  0  0  0  0  0  0  0
   -2.7821   -2.1738    0.0000 C   0  0  0  0  0  0  0  0  0  0  0  0
   -1.5435   -3.0198    0.0000 N   0  0  0  0  0  0  0  0  0  0  0  0
   -0.3561   -2.1032    0.0000 C   0  0  0  0  0  0  0  0  0  0  0  0
    1.1196   -2.3723    0.0000 C   0  0  0  0  0  0  0  0  0  0  0  0
    2.0904   -1.2289    0.0000 C   0  0  0  0  0  0  0  0  0  0  0  0
    1.5857    0.1836    0.0000 C   0  0  0  0  0  0  0  0  0  0  0  0
    2.5565    1.3270    0.0000 C   0  0  0  0  0  0  0  0  0  0  0  0
    4.0322    1.0579    0.0000 N   0  0  0  0  0  0  0  0  0  0  0  0
    5.1173    2.0936    0.0000 C   0  0  0  0  0  0  0  0  0  0  0  0
    6.4376    1.3816    0.0000 N   0  0  0  0  0  0  0  0  0  0  0  0
    6.1685   -0.0940    0.0000 C   0  0  0  0  0  0  0  0  0  0  0  0
    4.6819   -0.2941    0.0000 N   0  0  0  0  0  0  0  0  0  0  0  0
    0.1100    0.4527    0.0000 C   0  0  0  0  0  0  0  0  0  0  0  0
   -0.8609   -0.6907    0.0000 C   0  0  0  0  0  0  0  0  0  0  0  0
  1  2  1  0
  2  3  1  0
  2  4  1  0
  4  5  1  0
  5  6  1  0
  6  7  1  0
  7  8  2  0
  8  9  1  0
  9 10  2  0
 10 11  1  0
 11 12  2  0
 12 13  1  0
 13 14  1  0
 14 15  1  0
 15 16  2  0
 16 17  1  0
 17 18  2  0
 12 19  1  0
 19 20  2  0
 20  6  1  0
 20  9  1  0
 18 14  1  0
M  CHG  1   2   1
M  END
> <Identifier>
RIZATRIPTAN

> <hERG>
0

$$$$

     RDKit          2D

 22 24  0  0  0  0  0  0  0  0999 V2000
    6.0147   -0.8659    0.0000 C   0  0  0  0  0  0  0  0  0  0  0  0
    4.6001   -0.3671    0.0000 S   0  0  0  0  0  0  0  0  0  0  0  0
    5.0988    1.0475    0.0000 O   0  0  0  0  0  0  0  0  0  0  0  0
    4.1013   -1.7818    0.0000 O   0  0  0  0  0  0  0  0  0  0  0  0
    3.1854    0.1316    0.0000 C   0  0  0  0  0  0  0  0  0  0  0  0
    2.0462   -0.8441    0.0000 C   0  0  0  0  0  0  0  0  0  0  0  0
    0.6315   -0.3454    0.0000 C   0  0  0  0  0  0  0  0  0  0  0  0
    0.3561    1.1291    0.0000 C   0  0  0  0  0  0  0  0  0  0  0  0
   -1.0585    1.6278    0.0000 C   0  0  0  0  0  0  0  0  0  0  0  0
   -2.2936    0.7765    0.0000 C   0  0  0  0  0  0  0  0  0  0  0  0
   -2.3307   -0.7230    0.0000 C   0  0  0  0  0  0  0  0  0  0  0  0
   -3.6480   -1.4406    0.0000 C   0  0  0  0  0  0  0  0  0  0  0  0
   -3.6851   -2.9401    0.0000 C   0  0  0  0  0  0  0  0  0  0  0  0
   -2.4051   -3.7221    0.0000 C   0  0  0  0  0  0  0  0  0  0  0  0
   -1.0879   -3.0045    0.0000 C   0  0  0  0  0  0  0  0  0  0  0  0
   -1.0507   -1.5050    0.0000 C   0  0  0  0  0  0  0  0  0  0  0  0
   -3.4848    1.6880    0.0000 C   0  0  0  0  0  0  0  0  0  0  0  0
   -4.9225    1.2600    0.0000 O   0  0  0  0  0  0  0  0  0  0  0  0
   -2.9861    3.1027    0.0000 O   0  0  0  0  0  0  0  0  0  0  0  0
   -1.4866    3.0655    0.0000 C   0  0  0  0  0  0  0  0  0  0  0  0
    1.4954    2.1049    0.0000 C   0  0  0  0  0  0  0  0  0  0  0  0
    2.9100    1.6061    0.0000 C   0  0  0  0  0  0  0  0  0  0  0  0
  1  2  1  0
  2  3  2  0
  2  4  2  0
  2  5  1  0
  5  6  2  0
  6  7  1  0
  7  8  2  0
  8  9  1  0
  9 10  2  0
 10 11  1  0
 11 12  2  0
 12 13  1  0
 13 14  2  0
 14 15  1  0
 15 16  2  0
 10 17  1  0
 17 18  2  0
 17 19  1  0
 19 20  1  0
  8 21  1  0
 21 22  2  0
 22  5  1  0
 20  9  1  0
 16 11  1  0
M  END
> <Identifier>
ROFECOXIB

> <hERG>
0

$$$$

     RDKit          2D

 19 20  0  0  0  0  0  0  0  0999 V2000
   -6.5816    1.3623    0.0000 C   0  0  0  0  0  0  0  0  0  0  0  0
   -5.3402    0.5202    0.0000 C   0  0  0  0  0  0  0  0  0  0  0  0
   -3.9903    1.1743    0.0000 C   0  0  0  0  0  0  0  0  0  0  0  0
   -2.7489    0.3323    0.0000 N   0  0  0  0  0  4  0  0  0  0  0  0
   -2.8574   -1.1638    0.0000 C   0  0  0  0  0  0  0  0  0  0  0  0
   -4.2073   -1.8179    0.0000 C   0  0  0  0  0  0  0  0  0  0  0  0
   -4.3159   -3.3139    0.0000 C   0  0  0  0  0  0  0  0  0  0  0  0
   -1.3990    0.9863    0.0000 C   0  0  0  0  0  0  0  0  0  0  0  0
   -0.1576    0.1443    0.0000 C   0  0  0  0  0  0  0  0  0  0  0  0
    1.1922    0.7984    0.0000 C   0  0  0  0  0  0  0  0  0  0  0  0
    1.3008    2.2944    0.0000 C   0  0  0  0  0  0  0  0  0  0  0  0
    2.6507    2.9485    0.0000 C   0  0  0  0  0  0  0  0  0  0  0  0
    3.8920    2.1065    0.0000 C   0  0  0  0  0  0  0  0  0  0  0  0
    3.7835    0.6104    0.0000 C   0  0  0  0  0  0  0  0  0  0  0  0
    2.4336   -0.0437    0.0000 C   0  0  0  0  0  0  0  0  0  0  0  0
    2.6385   -1.5296    0.0000 C   0  0  0  0  0  0  0  0  0  0  0  0
    4.1151   -1.7939    0.0000 C   0  0  0  0  0  0  0  0  0  0  0  0
    4.7691   -3.1438    0.0000 O   0  0  0  0  0  0  0  0  0  0  0  0
    4.8227   -0.4713    0.0000 N   0  0  0  0  0  0  0  0  0  0  0  0
  1  2  1  0
  2  3  1  0
  3  4  1  0
  4  5  1  0
  5  6  1  0
  6  7  1  0
  4  8  1  0
  8  9  1  0
  9 10  1  0
 10 11  2  0
 11 12  1  0
 12 13  2  0
 13 14  1  0
 14 15  2  0
 15 16  1  0
 16 17  1  0
 17 18  2  0
 17 19  1  0
 15 10  1  0
 19 14  1  0
M  CHG  1   4   1
M  END
> <Identifier>
ROPINIROLE

> <hERG>
0

$$$$

     RDKit          2D

 25 27  0  0  0  0  0  0  0  0999 V2000
   -6.5618   -2.3580    0.0000 C   0  0  0  0  0  0  0  0  0  0  0  0
   -5.3266   -1.5071    0.0000 N   0  0  0  0  0  0  0  0  0  0  0  0
   -3.9720   -2.1514    0.0000 C   0  0  0  0  0  0  0  0  0  0  0  0
   -2.7367   -1.3004    0.0000 C   0  0  0  0  0  0  0  0  0  0  0  0
   -1.3821   -1.9448    0.0000 O   0  0  0  0  0  0  0  0  0  0  0  0
   -0.1469   -1.0938    0.0000 C   0  0  0  0  0  0  0  0  0  0  0  0
    1.2077   -1.7381    0.0000 C   0  0  0  0  0  0  0  0  0  0  0  0
    2.4430   -0.8872    0.0000 C   0  0  0  0  0  0  0  0  0  0  0  0
    2.3237    0.6081    0.0000 C   0  0  0  0  0  0  0  0  0  0  0  0
    3.5590    1.4590    0.0000 C   0  0  0  0  0  0  0  0  0  0  0  0
    4.9135    0.8147    0.0000 C   0  0  0  0  0  0  0  0  0  0  0  0
    6.2310    1.5318    0.0000 S   0  0  0  0  0  0  0  0  0  0  0  0
    7.3202    0.5005    0.0000 C   0  0  0  0  0  0  0  0  0  0  0  0
    8.7947    0.7754    0.0000 O   0  0  0  0  0  0  0  0  0  0  0  0
    6.6758   -0.8541    0.0000 N   0  0  0  0  0  0  0  0  0  0  0  0
    5.1885   -0.6599    0.0000 C   0  0  0  0  0  0  0  0  0  0  0  0
    4.1571   -1.7491    0.0000 O   0  0  0  0  0  0  0  0  0  0  0  0
    0.9691    1.2524    0.0000 C   0  0  0  0  0  0  0  0  0  0  0  0
   -0.2662    0.4014    0.0000 C   0  0  0  0  0  0  0  0  0  0  0  0
   -5.4459   -0.0118    0.0000 C   0  0  0  0  0  0  0  0  0  0  0  0
   -4.2106    0.8391    0.0000 C   0  0  0  0  0  0  0  0  0  0  0  0
   -4.3299    2.3344    0.0000 C   0  0  0  0  0  0  0  0  0  0  0  0
   -5.6845    2.9787    0.0000 C   0  0  0  0  0  0  0  0  0  0  0  0
   -6.9197    2.1277    0.0000 C   0  0  0  0  0  0  0  0  0  0  0  0
   -6.8004    0.6325    0.0000 N   0  0  0  0  0  0  0  0  0  0  0  0
  1  2  1  0
  2  3  1  0
  3  4  1  0
  4  5  1  0
  5  6  1  0
  6  7  2  0
  7  8  1  0
  8  9  2  0
  9 10  1  0
 10 11  1  0
 11 12  1  0
 12 13  1  0
 13 14  2  0
 13 15  1  0
 15 16  1  0
 16 17  2  0
  9 18  1  0
 18 19  2  0
  2 20  1  0
 20 21  2  0
 21 22  1  0
 22 23  2  0
 23 24  1  0
 24 25  2  0
 19  6  1  0
 25 20  1  0
 16 11  1  0
M  END
> <Identifier>
ROSIGLITAZONE

> <hERG>
0

$$$$

     RDKit          2D

 14 14  0  0  0  0  0  0  0  0999 V2000
   -1.4109    3.7463    0.0000 C   0  0  0  0  0  0  0  0  0  0  0  0
   -1.0826    2.2827    0.0000 C   0  0  0  0  0  0  0  0  0  0  0  0
   -0.7543    0.8191    0.0000 C   0  0  0  0  0  0  0  0  0  0  0  0
   -1.8577   -0.1971    0.0000 N   0  0  0  0  0  4  0  0  0  0  0  0
   -3.2894    0.2504    0.0000 C   0  0  0  0  0  0  0  0  0  0  0  0
   -1.5294   -1.6607    0.0000 C   0  0  0  0  0  0  0  0  0  0  0  0
   -2.6328   -2.6768    0.0000 C   0  0  0  0  0  0  0  0  0  0  0  0
   -0.0977   -2.1082    0.0000 C   0  0  0  0  0  0  0  0  0  0  0  0
    1.0057   -1.0921    0.0000 C   0  0  0  0  0  0  0  0  0  0  0  0
    0.6774    0.3716    0.0000 C   0  0  0  0  0  0  0  0  0  0  0  0
    1.7808    1.3877    0.0000 C   0  0  0  0  0  0  0  0  0  0  0  0
    3.2125    0.9402    0.0000 C   0  0  0  0  0  0  0  0  0  0  0  0
    3.5408   -0.5234    0.0000 C   0  0  0  0  0  0  0  0  0  0  0  0
    2.4374   -1.5396    0.0000 C   0  0  0  0  0  0  0  0  0  0  0  0
  1  2  3  0
  2  3  1  0
  3  4  1  0
  4  5  1  0
  4  6  1  0
  6  7  1  1
  6  8  1  0
  8  9  1  0
  9 10  2  0
 10 11  1  0
 11 12  2  0
 12 13  1  0
 13 14  2  0
 14  9  1  0
M  CHG  1   4   1
M  END
> <Identifier>
SELEGILINE

> <hERG>
0

$$$$

     RDKit          2D

 19 20  0  0  0  0  0  0  0  0999 V2000
    0.1033   -3.7070    0.0000 C   0  0  0  0  0  0  0  0  0  0  0  0
   -0.8173   -2.5227    0.0000 C   0  0  0  0  0  0  0  0  0  0  0  0
   -2.3032   -2.7278    0.0000 C   0  0  0  0  0  0  0  0  0  0  0  0
   -0.2520   -1.1334    0.0000 C   0  0  0  0  0  0  0  0  0  0  0  0
   -1.1725    0.0509    0.0000 C   0  0  0  0  0  0  0  0  0  0  0  0
   -2.6584   -0.1541    0.0000 N   0  0  0  0  0  4  0  0  0  0  0  0
   -3.2238   -1.5435    0.0000 C   0  0  0  0  0  0  0  0  0  0  0  0
   -3.5790    1.0301    0.0000 C   0  0  0  0  0  0  0  0  0  0  0  0
   -0.6072    1.4403    0.0000 C   0  0  0  0  0  0  0  0  0  0  0  0
    0.7822    0.8750    0.0000 C   0  0  0  0  0  0  0  0  0  0  0  0
    1.9665    1.7956    0.0000 C   0  0  0  0  0  0  0  0  0  0  0  0
    3.3559    1.2302    0.0000 C   0  0  0  0  0  0  0  0  0  0  0  0
    3.5610   -0.2557    0.0000 C   0  0  0  0  0  0  0  0  0  0  0  0
    4.9503   -0.8210    0.0000 Cl  0  0  0  0  0  0  0  0  0  0  0  0
    2.3767   -1.1763    0.0000 C   0  0  0  0  0  0  0  0  0  0  0  0
    0.9873   -0.6109    0.0000 C   0  0  0  0  0  0  0  0  0  0  0  0
   -0.0418    2.8297    0.0000 C   0  0  0  0  0  0  0  0  0  0  0  0
   -1.4312    3.3951    0.0000 C   0  0  0  0  0  0  0  0  0  0  0  0
   -1.9966    2.0057    0.0000 C   0  0  0  0  0  0  0  0  0  0  0  0
  1  2  1  0
  2  3  1  0
  2  4  1  0
  4  5  1  0
  5  6  1  0
  6  7  1  0
  6  8  1  0
  5  9  1  0
  9 10  1  0
 10 11  2  0
 11 12  1  0
 12 13  2  0
 13 14  1  0
 13 15  1  0
 15 16  2  0
  9 17  1  0
 17 18  1  0
 18 19  1  0
 19  9  1  0
 16 10  1  0
M  CHG  1   6   1
M  END
> <Identifier>
SIBUTRAMINE

> <hERG>
0

$$$$

     RDKit          2D

 18 18  0  0  0  0  0  0  0  0999 V2000
   -7.0400   -0.0180    0.0000 C   0  0  0  0  0  0  0  0  0  0  0  0
   -5.6298    0.4930    0.0000 C   0  0  0  0  0  0  0  0  0  0  0  0
   -5.3672    1.9699    0.0000 C   0  0  0  0  0  0  0  0  0  0  0  0
   -4.4821   -0.4728    0.0000 N   0  0  0  0  0  4  0  0  0  0  0  0
   -3.0718    0.0383    0.0000 C   0  0  0  0  0  0  0  0  0  0  0  0
   -1.9241   -0.9275    0.0000 C   0  0  0  0  0  0  0  0  0  0  0  0
   -2.1867   -2.4044    0.0000 O   0  0  0  0  0  0  0  0  0  0  0  0
   -0.5138   -0.4165    0.0000 C   0  0  0  0  0  0  0  0  0  0  0  0
   -0.2513    1.0604    0.0000 C   0  0  0  0  0  0  0  0  0  0  0  0
    1.1590    1.5714    0.0000 C   0  0  0  0  0  0  0  0  0  0  0  0
    2.3067    0.6056    0.0000 C   0  0  0  0  0  0  0  0  0  0  0  0
    3.7169    1.1166    0.0000 N   0  0  0  0  0  0  0  0  0  0  0  0
    4.8646    0.1508    0.0000 S   0  0  0  0  0  0  0  0  0  0  0  0
    6.0124   -0.8150    0.0000 C   0  0  0  0  0  0  0  0  0  0  0  0
    3.8988   -0.9969    0.0000 O   0  0  0  0  0  0  0  0  0  0  0  0
    5.8304    1.2986    0.0000 O   0  0  0  0  0  0  0  0  0  0  0  0
    2.0441   -0.8712    0.0000 C   0  0  0  0  0  0  0  0  0  0  0  0
    0.6339   -1.3823    0.0000 C   0  0  0  0  0  0  0  0  0  0  0  0
  1  2  1  0
  2  3  1  0
  2  4  1  0
  4  5  1  0
  5  6  1  0
  6  7  1  0
  6  8  1  0
  8  9  2  0
  9 10  1  0
 10 11  2  0
 11 12  1  0
 12 13  1  0
 13 14  1  0
 13 15  2  0
 13 16  2  0
 11 17  1  0
 17 18  2  0
 18  8  1  0
M  CHG  1   4   1
M  END
> <Identifier>
SOTALOL

> <hERG>
0

$$$$

     RDKit          2D

 16 17  0  0  0  0  0  0  0  0999 V2000
    4.0784   -1.9184    0.0000 C   0  0  0  0  0  0  0  0  0  0  0  0
    3.0219   -0.8536    0.0000 C   0  0  0  0  0  0  0  0  0  0  0  0
    1.5715   -1.2363    0.0000 C   0  0  0  0  0  0  0  0  0  0  0  0
    0.5150   -0.1715    0.0000 N   0  0  0  0  0  0  0  0  0  0  0  0
   -0.9354   -0.5541    0.0000 C   0  0  0  0  0  0  0  0  0  0  0  0
   -1.4784   -1.9524    0.0000 C   0  0  0  0  0  0  0  0  0  0  0  0
   -2.9760   -1.8681    0.0000 C   0  0  0  0  0  0  0  0  0  0  0  0
   -3.3586   -0.4178    0.0000 C   0  0  0  0  0  0  0  0  0  0  0  0
   -4.7569    0.1252    0.0000 C   0  0  0  0  0  0  0  0  0  0  0  0
   -4.9859    1.6076    0.0000 O   0  0  0  0  0  0  0  0  0  0  0  0
   -2.0975    0.3943    0.0000 O   0  0  0  0  0  0  0  0  0  0  0  0
    0.9088    1.2759    0.0000 C   0  0  0  0  0  0  0  0  0  0  0  0
   -0.1478    2.3406    0.0000 O   0  0  0  0  0  0  0  0  0  0  0  0
    2.3592    1.6585    0.0000 N   0  0  0  0  0  0  0  0  0  0  0  0
    3.4157    0.5937    0.0000 C   0  0  0  0  0  0  0  0  0  0  0  0
    4.8661    0.9764    0.0000 O   0  0  0  0  0  0  0  0  0  0  0  0
  1  2  1  0
  2  3  2  0
  3  4  1  0
  4  5  1  0
  5  6  1  0
  6  7  2  0
  7  8  1  0
  8  9  1  0
  9 10  1  0
  8 11  1  0
  4 12  1  0
 12 13  2  0
 12 14  1  0
 14 15  1  0
 15 16  2  0
 15  2  1  0
 11  5  1  0
M  END
> <Identifier>
STAVUDINE

> <hERG>
0

$$$$

     RDKit          2D

 25 27  0  0  0  0  0  0  0  0999 V2000
   -2.9487    2.6738    0.0000 C   0  0  0  0  0  0  0  0  0  0  0  0
   -2.3508    1.2981    0.0000 C   0  0  0  0  0  0  0  0  0  0  0  0
   -3.1122    0.0058    0.0000 C   0  0  0  0  0  0  0  0  0  0  0  0
   -4.6054   -0.1378    0.0000 C   0  0  0  0  0  0  0  0  0  0  0  0
   -5.4763    1.0835    0.0000 C   0  0  0  0  0  0  0  0  0  0  0  0
   -4.8540    2.4483    0.0000 O   0  0  0  0  0  0  0  0  0  0  0  0
   -6.9694    0.9399    0.0000 O   0  0  0  0  0  1  0  0  0  0  0  0
   -2.1185   -1.1178    0.0000 C   0  0  0  0  0  0  0  0  0  0  0  0
   -2.2884   -2.6081    0.0000 C   0  0  0  0  0  0  0  0  0  0  0  0
   -1.0828   -3.5005    0.0000 C   0  0  0  0  0  0  0  0  0  0  0  0
   -1.2528   -4.9909    0.0000 F   0  0  0  0  0  0  0  0  0  0  0  0
    0.2929   -2.9026    0.0000 C   0  0  0  0  0  0  0  0  0  0  0  0
    0.4629   -1.4122    0.0000 C   0  0  0  0  0  0  0  0  0  0  0  0
   -0.7428   -0.5198    0.0000 C   0  0  0  0  0  0  0  0  0  0  0  0
   -0.8864    0.9733    0.0000 C   0  0  0  0  0  0  0  0  0  0  0  0
    0.2372    1.9671    0.0000 C   0  0  0  0  0  0  0  0  0  0  0  0
    1.6596    1.4909    0.0000 C   0  0  0  0  0  0  0  0  0  0  0  0
    1.9585    0.0210    0.0000 C   0  0  0  0  0  0  0  0  0  0  0  0
    3.3809   -0.4551    0.0000 C   0  0  0  0  0  0  0  0  0  0  0  0
    4.5045    0.5387    0.0000 C   0  0  0  0  0  0  0  0  0  0  0  0
    5.9269    0.0625    0.0000 S   0  0  0  0  0  0  0  0  0  0  0  0
    6.2258   -1.4074    0.0000 C   0  0  0  0  0  0  0  0  0  0  0  0
    7.0505    1.0563    0.0000 O   0  0  0  0  0  0  0  0  0  0  0  0
    4.2056    2.0086    0.0000 C   0  0  0  0  0  0  0  0  0  0  0  0
    2.7832    2.4847    0.0000 C   0  0  0  0  0  0  0  0  0  0  0  0
  1  2  1  0
  2  3  2  0
  3  4  1  0
  4  5  1  0
  5  6  2  0
  5  7  1  0
  3  8  1  0
  8  9  2  0
  9 10  1  0
 10 11  1  0
 10 12  2  0
 12 13  1  0
 13 14  2  0
 14 15  1  0
 15 16  2  0
 16 17  1  0
 17 18  2  0
 18 19  1  0
 19 20  2  0
 20 21  1  0
 21 22  1  0
 21 23  2  0
 20 24  1  0
 24 25  2  0
 15  2  1  0
 25 17  1  0
 14  8  1  0
M  CHG  1   7  -1
M  END
> <Identifier>
SULINDAC

> <hERG>
0

$$$$

     RDKit          2D

 20 21  0  0  0  0  0  0  0  0999 V2000
   -6.1694    0.3826    0.0000 C   0  0  0  0  0  0  0  0  0  0  0  0
   -5.6189   -1.0127    0.0000 N   0  0  0  0  0  0  0  0  0  0  0  0
   -4.1352   -1.2336    0.0000 S   0  0  0  0  0  0  0  0  0  0  0  0
   -4.3561   -2.7172    0.0000 O   0  0  0  0  0  0  0  0  0  0  0  0
   -3.9143    0.2501    0.0000 O   0  0  0  0  0  0  0  0  0  0  0  0
   -2.6516   -1.4545    0.0000 C   0  0  0  0  0  0  0  0  0  0  0  0
   -1.7185   -0.2800    0.0000 C   0  0  0  0  0  0  0  0  0  0  0  0
   -2.2690    1.1153    0.0000 C   0  0  0  0  0  0  0  0  0  0  0  0
   -1.3359    2.2897    0.0000 C   0  0  0  0  0  0  0  0  0  0  0  0
    0.1478    2.0688    0.0000 C   0  0  0  0  0  0  0  0  0  0  0  0
    0.6983    0.6735    0.0000 C   0  0  0  0  0  0  0  0  0  0  0  0
   -0.2348   -0.5009    0.0000 C   0  0  0  0  0  0  0  0  0  0  0  0
    2.1955    0.7659    0.0000 C   0  0  0  0  0  0  0  0  0  0  0  0
    3.1502   -0.3910    0.0000 C   0  0  0  0  0  0  0  0  0  0  0  0
    4.6295   -0.1426    0.0000 C   0  0  0  0  0  0  0  0  0  0  0  0
    5.5843   -1.2995    0.0000 N   0  0  0  0  0  4  0  0  0  0  0  0
    7.0636   -1.0511    0.0000 C   0  0  0  0  0  0  0  0  0  0  0  0
    5.0597   -2.7048    0.0000 C   0  0  0  0  0  0  0  0  0  0  0  0
    2.5702    2.2183    0.0000 C   0  0  0  0  0  0  0  0  0  0  0  0
    1.3047    3.0236    0.0000 N   0  0  0  0  0  0  0  0  0  0  0  0
  1  2  1  0
  2  3  1  0
  3  4  2  0
  3  5  2  0
  3  6  1  0
  6  7  1  0
  7  8  2  0
  8  9  1  0
  9 10  2  0
 10 11  1  0
 11 12  2  0
 11 13  1  0
 13 14  1  0
 14 15  1  0
 15 16  1  0
 16 17  1  0
 16 18  1  0
 13 19  1  0
 19 20  2  0
 12  7  1  0
 20 10  1  0
M  CHG  1  16   1
M  END
> <Identifier>
SUMATRIPTAN

> <hERG>
0

$$$$

     RDKit          2D

 14 15  0  0  0  0  0  0  0  0999 V2000
    4.0746   -1.0319    0.0000 C   0  0  0  0  0  0  0  0  0  0  0  0
    2.5986   -0.7646    0.0000 N   0  0  0  0  0  4  0  0  0  0  0  0
    1.6290   -1.9091    0.0000 N   0  0  0  0  0  0  0  0  0  0  0  0
    0.1531   -1.6418    0.0000 N   0  0  0  0  0  0  0  0  0  0  0  0
   -0.3534   -0.2298    0.0000 C   0  0  0  0  0  0  0  0  0  0  0  0
   -1.7415    0.3385    0.0000 C   0  0  0  0  0  0  0  0  0  0  0  0
   -3.0173   -0.4504    0.0000 C   0  0  0  0  0  0  0  0  0  0  0  0
   -4.3384    0.2600    0.0000 N   0  0  0  0  0  0  0  0  0  0  0  0
   -2.9719   -1.9497    0.0000 O   0  0  0  0  0  0  0  0  0  0  0  0
   -1.6299    1.8344    0.0000 N   0  0  0  0  0  0  0  0  0  0  0  0
   -0.1728    2.1905    0.0000 C   0  0  0  0  0  0  0  0  0  0  0  0
    0.6162    0.9147    0.0000 N   0  0  0  0  0  4  0  0  0  0  0  0
    2.0921    0.6473    0.0000 C   0  0  0  0  0  0  0  0  0  0  0  0
    3.0617    1.7919    0.0000 O   0  0  0  0  0  0  0  0  0  0  0  0
  1  2  1  0
  2  3  2  0
  3  4  1  0
  4  5  2  0
  5  6  1  0
  6  7  1  0
  7  8  1  0
  7  9  2  0
  6 10  2  0
 10 11  1  0
 11 12  2  0
 12 13  1  0
 13 14  2  0
 13  2  1  0
 12  5  1  0
M  CHG  2   2   1  12   1
M  END
> <Identifier>
TEMOZOLOMIDE

> <hERG>
0

$$$$

     RDKit          2D

 16 16  0  0  0  0  0  0  0  0999 V2000
   -4.9713   -0.9566    0.0000 C   0  0  0  0  0  0  0  0  0  0  0  0
   -4.0623    0.2366    0.0000 C   0  0  0  0  0  0  0  0  0  0  0  0
   -3.1534    1.4299    0.0000 C   0  0  0  0  0  0  0  0  0  0  0  0
   -5.2556    1.1456    0.0000 C   0  0  0  0  0  0  0  0  0  0  0  0
   -2.8691   -0.6723    0.0000 N   0  0  0  0  0  4  0  0  0  0  0  0
   -1.4853   -0.0934    0.0000 C   0  0  0  0  0  0  0  0  0  0  0  0
   -0.2920   -1.0023    0.0000 C   0  0  0  0  0  0  0  0  0  0  0  0
   -0.4826   -2.4901    0.0000 O   0  0  0  0  0  0  0  0  0  0  0  0
    1.0917   -0.4233    0.0000 C   0  0  0  0  0  0  0  0  0  0  0  0
    1.2823    1.0645    0.0000 C   0  0  0  0  0  0  0  0  0  0  0  0
    2.6660    1.6434    0.0000 C   0  0  0  0  0  0  0  0  0  0  0  0
    2.8566    3.1313    0.0000 O   0  0  0  0  0  0  0  0  0  0  0  0
    3.8593    0.7345    0.0000 C   0  0  0  0  0  0  0  0  0  0  0  0
    3.6688   -0.7533    0.0000 C   0  0  0  0  0  0  0  0  0  0  0  0
    4.8620   -1.6623    0.0000 O   0  0  0  0  0  0  0  0  0  0  0  0
    2.2850   -1.3323    0.0000 C   0  0  0  0  0  0  0  0  0  0  0  0
  1  2  1  0
  2  3  1  0
  2  4  1  0
  2  5  1  0
  5  6  1  0
  6  7  1  0
  7  8  1  0
  7  9  1  0
  9 10  2  0
 10 11  1  0
 11 12  1  0
 11 13  2  0
 13 14  1  0
 14 15  1  0
 14 16  2  0
 16  9  1  0
M  CHG  1   5   1
M  END
> <Identifier>
TERBUTALINE

> <hERG>
0

$$$$

     RDKit          2D

 22 25  0  0  0  0  0  0  0  0999 V2000
   -3.0688    2.1051    0.0000 C   0  0  0  0  0  0  0  0  0  0  0  0
   -2.4592    0.7345    0.0000 C   0  0  0  0  0  0  0  0  0  0  0  0
   -1.5770    1.9477    0.0000 C   0  0  0  0  0  0  0  0  0  0  0  0
   -0.0853    1.7903    0.0000 C   0  0  0  0  0  0  0  0  0  0  0  0
    0.5242    0.4197    0.0000 C   0  0  0  0  0  0  0  0  0  0  0  0
   -0.3580   -0.7935    0.0000 C   0  0  0  0  0  0  0  0  0  0  0  0
    0.2516   -2.1640    0.0000 C   0  0  0  0  0  0  0  0  0  0  0  0
    1.7433   -2.3215    0.0000 C   0  0  0  0  0  0  0  0  0  0  0  0
    2.6255   -1.1083    0.0000 C   0  0  0  0  0  0  0  0  0  0  0  0
    4.1172   -1.2657    0.0000 C   0  0  0  0  0  0  0  0  0  0  0  0
    4.9994   -0.0526    0.0000 C   0  0  0  0  0  0  0  0  0  0  0  0
    6.4911   -0.2100    0.0000 O   0  0  0  0  0  0  0  0  0  0  0  0
    4.3898    1.3180    0.0000 C   0  0  0  0  0  0  0  0  0  0  0  0
    2.8981    1.4754    0.0000 C   0  0  0  0  0  0  0  0  0  0  0  0
    2.0159    0.2623    0.0000 C   0  0  0  0  0  0  0  0  0  0  0  0
    1.4064    1.6328    0.0000 C   0  0  0  0  0  0  0  0  0  0  0  0
   -1.8497   -0.6361    0.0000 C   0  0  0  0  0  0  0  0  0  0  0  0
   -2.7319   -1.8492    0.0000 C   0  0  0  0  0  0  0  0  0  0  0  0
   -4.2236   -1.6918    0.0000 C   0  0  0  0  0  0  0  0  0  0  0  0
   -4.8331   -0.3212    0.0000 C   0  0  0  0  0  0  0  0  0  0  0  0
   -6.3248   -0.1638    0.0000 O   0  0  0  0  0  0  0  0  0  0  0  0
   -3.9509    0.8919    0.0000 O   0  0  0  0  0  0  0  0  0  0  0  0
  1  2  1  0
  2  3  1  0
  3  4  1  0
  4  5  1  0
  5  6  1  0
  6  7  1  0
  7  8  1  0
  8  9  1  0
  9 10  2  0
 10 11  1  0
 11 12  2  0
 11 13  1  0
 13 14  2  0
 14 15  1  0
 15 16  1  0
  6 17  1  0
 17 18  1  0
 18 19  1  0
 19 20  1  0
 20 21  2  0
 20 22  1  0
 17  2  1  0
 22  2  1  0
 15  5  1  0
 15  9  1  0
M  END
> <Identifier>
TESTOLACTONE

> <hERG>
0

$$$$

     RDKit          2D

 19 21  0  0  0  0  0  0  0  0999 V2000
   -5.9286    0.2851    0.0000 O   0  0  0  0  0  0  0  0  0  0  0  0
   -4.4291    0.2475    0.0000 C   0  0  0  0  0  0  0  0  0  0  0  0
   -3.6468    1.5274    0.0000 C   0  0  0  0  0  0  0  0  0  0  0  0
   -2.1473    1.4899    0.0000 C   0  0  0  0  0  0  0  0  0  0  0  0
   -1.4300    0.1725    0.0000 C   0  0  0  0  0  0  0  0  0  0  0  0
    0.0695    0.1350    0.0000 N   0  0  0  0  0  0  0  0  0  0  0  0
    0.9206   -1.1001    0.0000 C   0  0  0  0  0  0  0  0  0  0  0  0
    0.4215   -2.5147    0.0000 O   0  0  0  0  0  0  0  0  0  0  0  0
    2.3583   -0.6724    0.0000 C   0  0  0  0  0  0  0  0  0  0  0  0
    3.6382   -1.4547    0.0000 C   0  0  0  0  0  0  0  0  0  0  0  0
    4.9556   -0.7374    0.0000 C   0  0  0  0  0  0  0  0  0  0  0  0
    4.9931    0.7621    0.0000 C   0  0  0  0  0  0  0  0  0  0  0  0
    3.7132    1.5444    0.0000 C   0  0  0  0  0  0  0  0  0  0  0  0
    2.3958    0.8271    0.0000 C   0  0  0  0  0  0  0  0  0  0  0  0
    0.9813    1.3261    0.0000 C   0  0  0  0  0  0  0  0  0  0  0  0
    0.5536    2.7639    0.0000 O   0  0  0  0  0  0  0  0  0  0  0  0
   -2.2122   -1.1073    0.0000 C   0  0  0  0  0  0  0  0  0  0  0  0
   -1.4950   -2.4247    0.0000 O   0  0  0  0  0  0  0  0  0  0  0  0
   -3.7118   -1.0698    0.0000 N   0  0  0  0  0  0  0  0  0  0  0  0
  1  2  2  0
  2  3  1  0
  3  4  1  0
  4  5  1  0
  5  6  1  0
  6  7  1  0
  7  8  2  0
  7  9  1  0
  9 10  2  0
 10 11  1  0
 11 12  2  0
 12 13  1  0
 13 14  2  0
 14 15  1  0
 15 16  2  0
  5 17  1  0
 17 18  2  0
 17 19  1  0
 19  2  1  0
 15  6  1  0
 14  9  1  0
M  END
> <Identifier>
THALIDOMIDE

> <hERG>
0

$$$$

     RDKit          2D

 13 14  0  0  0  0  0  0  0  0999 V2000
    2.8952   -1.5000    0.0000 C   0  0  0  0  0  0  0  0  0  0  0  0
    1.5961   -0.7500    0.0000 N   0  0  0  0  0  0  0  0  0  0  0  0
    0.2971   -1.5000    0.0000 C   0  0  0  0  0  0  0  0  0  0  0  0
    0.2971   -3.0000    0.0000 O   0  0  0  0  0  0  0  0  0  0  0  0
   -1.0019   -0.7500    0.0000 C   0  0  0  0  0  0  0  0  0  0  0  0
   -2.4285   -1.2135    0.0000 N   0  0  0  0  0  0  0  0  0  0  0  0
   -3.3102    0.0000    0.0000 C   0  0  0  0  0  0  0  0  0  0  0  0
   -2.4285    1.2135    0.0000 N   0  0  0  0  0  0  0  0  0  0  0  0
   -1.0019    0.7500    0.0000 C   0  0  0  0  0  0  0  0  0  0  0  0
    0.2971    1.5000    0.0000 N   0  0  0  0  0  0  0  0  0  0  0  0
    0.2971    3.0000    0.0000 C   0  0  0  0  0  0  0  0  0  0  0  0
    1.5961    0.7500    0.0000 C   0  0  0  0  0  0  0  0  0  0  0  0
    2.8952    1.5000    0.0000 O   0  0  0  0  0  0  0  0  0  0  0  0
  1  2  1  0
  2  3  1  0
  3  4  2  0
  3  5  1  0
  5  6  1  0
  6  7  2  0
  7  8  1  0
  8  9  1  0
  9 10  1  0
 10 11  1  0
 10 12  1  0
 12 13  2  0
 12  2  1  0
  9  5  2  0
M  END
> <Identifier>
THEOPHYLLINE

> <hERG>
0

$$$$

     RDKit          2D

 11 12  0  0  0  0  0  0  0  0999 V2000
    3.4185    1.0669    0.0000 N   0  0  0  0  0  0  0  0  0  0  0  0
    2.0102    0.5504    0.0000 C   0  0  0  0  0  0  0  0  0  0  0  0
    1.7535   -0.9275    0.0000 N   0  0  0  0  0  0  0  0  0  0  0  0
    0.3452   -1.4440    0.0000 C   0  0  0  0  0  0  0  0  0  0  0  0
    0.0884   -2.9219    0.0000 S   0  0  0  0  0  0  0  0  0  0  0  0
   -0.8063   -0.4827    0.0000 C   0  0  0  0  0  0  0  0  0  0  0  0
   -2.2911   -0.6952    0.0000 N   0  0  0  0  0  0  0  0  0  0  0  0
   -2.9521    0.6513    0.0000 C   0  0  0  0  0  0  0  0  0  0  0  0
   -1.8757    1.6960    0.0000 N   0  0  0  0  0  0  0  0  0  0  0  0
   -0.5495    0.9951    0.0000 C   0  0  0  0  0  0  0  0  0  0  0  0
    0.8588    1.5117    0.0000 N   0  0  0  0  0  0  0  0  0  0  0  0
  1  2  1  0
  2  3  2  0
  3  4  1  0
  4  5  2  0
  4  6  1  0
  6  7  1  0
  7  8  1  0
  8  9  2  0
  9 10  1  0
 10 11  1  0
 11  2  1  0
 10  6  2  0
M  END
> <Identifier>
THIOGUANINE

> <hERG>
0

$$$$

     RDKit          2D

 17 17  0  0  0  0  0  0  0  0999 V2000
   -4.4117   -1.1128    0.0000 O   0  0  0  0  0  0  0  0  0  0  0  0
   -2.9776   -0.6731    0.0000 P   0  0  0  0  0  0  0  0  0  0  0  0
   -3.4173    0.7610    0.0000 O   0  0  0  0  0  1  0  0  0  0  0  0
   -2.5379   -2.1072    0.0000 O   0  0  0  0  0  1  0  0  0  0  0  0
   -1.5435   -0.2334    0.0000 C   0  0  0  0  0  0  0  0  0  0  0  0
   -0.4457   -1.2556    0.0000 S   0  0  0  0  0  0  0  0  0  0  0  0
    0.9885   -0.8159    0.0000 C   0  0  0  0  0  0  0  0  0  0  0  0
    1.3247    0.6459    0.0000 C   0  0  0  0  0  0  0  0  0  0  0  0
    2.7588    1.0856    0.0000 C   0  0  0  0  0  0  0  0  0  0  0  0
    3.8567    0.0635    0.0000 C   0  0  0  0  0  0  0  0  0  0  0  0
    5.2908    0.5032    0.0000 Cl  0  0  0  0  0  0  0  0  0  0  0  0
    3.5204   -1.3983    0.0000 C   0  0  0  0  0  0  0  0  0  0  0  0
    2.0863   -1.8380    0.0000 C   0  0  0  0  0  0  0  0  0  0  0  0
   -1.2072    1.2284    0.0000 P   0  0  0  0  0  0  0  0  0  0  0  0
   -0.8709    2.6902    0.0000 O   0  0  0  0  0  0  0  0  0  0  0  0
   -2.6690    1.5647    0.0000 O   0  0  0  0  0  1  0  0  0  0  0  0
    0.2546    0.8921    0.0000 O   0  0  0  0  0  1  0  0  0  0  0  0
  1  2  2  0
  2  3  1  0
  2  4  1  0
  2  5  1  0
  5  6  1  0
  6  7  1  0
  7  8  2  0
  8  9  1  0
  9 10  2  0
 10 11  1  0
 10 12  1  0
 12 13  2  0
  5 14  1  0
 14 15  2  0
 14 16  1  0
 14 17  1  0
 13  7  1  0
M  CHG  4   3  -1   4  -1  16  -1  17  -1
M  END
> <Identifier>
TILUDRONIC_ACID

> <hERG>
0

$$$$

     RDKit          2D

 16 18  0  0  0  0  0  0  0  0999 V2000
    1.4366   -1.7391    0.0000 Cl  0  0  0  0  0  0  0  0  0  0  0  0
   -0.0011   -1.3115    0.0000 C   0  0  0  0  0  0  0  0  0  0  0  0
   -1.0904   -2.3428    0.0000 C   0  0  0  0  0  0  0  0  0  0  0  0
   -2.5281   -1.9151    0.0000 C   0  0  0  0  0  0  0  0  0  0  0  0
   -2.8766   -0.4562    0.0000 C   0  0  0  0  0  0  0  0  0  0  0  0
   -4.1940    0.2611    0.0000 N   0  0  0  0  0  0  0  0  0  0  0  0
   -3.9190    1.7356    0.0000 S   0  0  0  0  0  0  0  0  0  0  0  0
   -2.4316    1.9297    0.0000 N   0  0  0  0  0  0  0  0  0  0  0  0
   -1.7874    0.5751    0.0000 C   0  0  0  0  0  0  0  0  0  0  0  0
   -0.3496    0.1475    0.0000 C   0  0  0  0  0  0  0  0  0  0  0  0
    0.7396    1.1788    0.0000 N   0  0  0  0  0  0  0  0  0  0  0  0
    2.1773    0.7511    0.0000 C   0  0  0  0  0  0  0  0  0  0  0  0
    3.3684    1.6629    0.0000 N   0  0  0  0  0  4  0  0  0  0  0  0
    4.6036    0.8119    0.0000 C   0  0  0  0  0  0  0  0  0  0  0  0
    4.1760   -0.6258    0.0000 C   0  0  0  0  0  0  0  0  0  0  0  0
    2.6764   -0.6634    0.0000 N   0  0  0  0  0  0  0  0  0  0  0  0
  1  2  1  0
  2  3  1  0
  3  4  2  0
  4  5  1  0
  5  6  2  0
  6  7  1  0
  7  8  1  0
  8  9  2  0
  9 10  1  0
 10 11  1  0
 11 12  1  0
 12 13  2  0
 13 14  1  0
 14 15  1  0
 15 16  1  0
 10  2  2  0
 16 12  1  0
  9  5  1  0
M  CHG  1  13   1
M  END
> <Identifier>
TIZANIDINE

> <hERG>
0

$$$$

     RDKit          2D

 20 21  0  0  0  0  0  0  0  0999 V2000
   -6.2980   -1.1212    0.0000 C   0  0  0  0  0  0  0  0  0  0  0  0
   -4.9363   -0.4920    0.0000 C   0  0  0  0  0  0  0  0  0  0  0  0
   -4.8003    1.0018    0.0000 C   0  0  0  0  0  0  0  0  0  0  0  0
   -3.4387    1.6309    0.0000 C   0  0  0  0  0  0  0  0  0  0  0  0
   -2.2130    0.7663    0.0000 C   0  0  0  0  0  0  0  0  0  0  0  0
   -0.8513    1.3954    0.0000 C   0  0  0  0  0  0  0  0  0  0  0  0
   -0.7153    2.8892    0.0000 O   0  0  0  0  0  0  0  0  0  0  0  0
    0.3744    0.5307    0.0000 C   0  0  0  0  0  0  0  0  0  0  0  0
    0.2384   -0.9631    0.0000 C   0  0  0  0  0  0  0  0  0  0  0  0
    1.4641   -1.8278    0.0000 C   0  0  0  0  0  0  0  0  0  0  0  0
    1.3281   -3.3216    0.0000 O   0  0  0  0  0  0  0  0  0  0  0  0
    2.8258   -1.1986    0.0000 C   0  0  0  0  0  0  0  0  0  0  0  0
    4.0515   -2.0633    0.0000 O   0  0  0  0  0  1  0  0  0  0  0  0
    2.9618    0.2952    0.0000 C   0  0  0  0  0  0  0  0  0  0  0  0
    4.3235    0.9244    0.0000 N   0  0  0  0  0  4  0  0  0  0  0  0
    5.5492    0.0597    0.0000 O   0  0  0  0  0  0  0  0  0  0  0  0
    4.4595    2.4182    0.0000 O   0  0  0  0  0  1  0  0  0  0  0  0
    1.7361    1.1599    0.0000 C   0  0  0  0  0  0  0  0  0  0  0  0
   -2.3489   -0.7276    0.0000 C   0  0  0  0  0  0  0  0  0  0  0  0
   -3.7106   -1.3567    0.0000 C   0  0  0  0  0  0  0  0  0  0  0  0
  1  2  1  0
  2  3  2  0
  3  4  1  0
  4  5  2  0
  5  6  1  0
  6  7  2  0
  6  8  1  0
  8  9  2  0
  9 10  1  0
 10 11  1  0
 10 12  2  0
 12 13  1  0
 12 14  1  0
 14 15  1  0
 15 16  2  0
 15 17  1  0
 14 18  2  0
  5 19  1  0
 19 20  2  0
 20  2  1  0
 18  8  1  0
M  CHG  3  13  -1  15   1  17  -1
M  END
> <Identifier>
TOLCAPONE

> <hERG>
0

$$$$
