
     RDKit          2D

 29 32  0  0  0  0  0  0  0  0999 V2000
   -8.4458    1.3080    0.0000 C   0  0  0  0  0  0  0  0  0  0  0  0
   -6.9563    1.4852    0.0000 C   0  0  0  0  0  0  0  0  0  0  0  0
   -6.3651    2.8638    0.0000 O   0  0  0  0  0  0  0  0  0  0  0  0
   -6.0580    0.2839    0.0000 O   0  0  0  0  0  0  0  0  0  0  0  0
   -4.5685    0.4612    0.0000 C   0  0  0  0  0  0  0  0  0  0  0  0
   -3.6703   -0.7401    0.0000 C   0  0  0  0  0  0  0  0  0  0  0  0
   -4.2615   -2.1187    0.0000 O   0  0  0  0  0  0  0  0  0  0  0  0
   -2.1808   -0.5629    0.0000 C   0  0  0  0  0  0  0  0  0  0  0  0
   -2.6886    0.8486    0.0000 O   0  0  0  0  0  0  0  0  0  0  0  0
   -2.1602   -2.0627    0.0000 C   0  0  0  0  0  0  0  0  0  0  0  0
   -3.3615   -2.9610    0.0000 C   0  0  0  0  0  0  0  0  0  0  0  0
   -0.7274   -2.5066    0.0000 C   0  0  0  0  0  0  0  0  0  0  0  0
    0.1375   -1.2811    0.0000 C   0  0  0  0  0  0  0  0  0  0  0  0
    1.6270   -1.1038    0.0000 C   0  0  0  0  0  0  0  0  0  0  0  0
    2.5253   -2.3051    0.0000 C   0  0  0  0  0  0  0  0  0  0  0  0
    4.0148   -2.1279    0.0000 C   0  0  0  0  0  0  0  0  0  0  0  0
    4.6060   -0.7493    0.0000 C   0  0  0  0  0  0  0  0  0  0  0  0
    6.0955   -0.5721    0.0000 C   0  0  0  0  0  0  0  0  0  0  0  0
    6.6867    0.8065    0.0000 C   0  0  0  0  0  0  0  0  0  0  0  0
    8.1762    0.9838    0.0000 O   0  0  0  0  0  0  0  0  0  0  0  0
    5.7885    2.0078    0.0000 C   0  0  0  0  0  0  0  0  0  0  0  0
    4.2990    1.8305    0.0000 C   0  0  0  0  0  0  0  0  0  0  0  0
    3.7078    0.4520    0.0000 C   0  0  0  0  0  0  0  0  0  0  0  0
    2.8095    1.6533    0.0000 C   0  0  0  0  0  0  0  0  0  0  0  0
    2.2183    0.2747    0.0000 C   0  0  0  0  0  0  0  0  0  0  0  0
    1.3200    1.4760    0.0000 C   0  0  0  0  0  0  0  0  0  0  0  0
   -0.1695    1.2988    0.0000 C   0  0  0  0  0  0  0  0  0  0  0  0
   -0.7607   -0.0798    0.0000 C   0  0  0  0  0  0  0  0  0  0  0  0
   -1.6378    1.1370    0.0000 C   0  0  0  0  0  0  0  0  0  0  0  0
  1  2  1  0
  2  3  2  0
  2  4  1  0
  4  5  1  0
  5  6  1  0
  6  7  2  0
  6  8  1  0
  8  9  1  0
  8 10  1  0
 10 11  1  0
 10 12  1  0
 12 13  1  0
 13 14  1  0
 14 15  1  0
 15 16  1  0
 16 17  1  0
 17 18  2  0
 18 19  1  0
 19 20  2  0
 19 21  1  0
 21 22  2  0
 22 23  1  0
 23 24  1  0
 23 25  1  0
 25 26  2  0
 26 27  1  0
 27 28  1  0
 28 29  1  0
 28  8  1  0
 28 13  1  0
 25 14  1  0
 23 17  1  0
M  END
> <Identifier>
(16-b)-21-(Acetyloxy)-17-hydroxy-16-methylpregna-1,4,9(11)-triene-3,20-dione

> <SkinReaction>
0

$$$$

     RDKit          2D

 22 23  0  0  0  0  0  0  0  0999 V2000
   -6.7100   -3.0545    0.0000 C   0  0  0  0  0  0  0  0  0  0  0  0
   -5.2204   -2.8780    0.0000 C   0  0  0  0  0  0  0  0  0  0  0  0
   -4.6284   -1.4997    0.0000 C   0  0  0  0  0  0  0  0  0  0  0  0
   -3.1388   -1.3233    0.0000 O   0  0  0  0  0  0  0  0  0  0  0  0
   -2.5469    0.0550    0.0000 C   0  0  0  0  0  0  0  0  0  0  0  0
   -3.4445    1.2568    0.0000 C   0  0  0  0  0  0  0  0  0  0  0  0
   -2.8526    2.6350    0.0000 C   0  0  0  0  0  0  0  0  0  0  0  0
   -1.3630    2.8115    0.0000 C   0  0  0  0  0  0  0  0  0  0  0  0
   -0.7710    4.1898    0.0000 Br  0  0  0  0  0  0  0  0  0  0  0  0
   -0.4654    1.6097    0.0000 C   0  0  0  0  0  0  0  0  0  0  0  0
    1.0242    1.7862    0.0000 C   0  0  0  0  0  0  0  0  0  0  0  0
    1.6162    3.1645    0.0000 O   0  0  0  0  0  0  0  0  0  0  0  0
    1.9219    0.5845    0.0000 C   0  0  0  0  0  0  0  0  0  0  0  0
    1.3299   -0.7938    0.0000 C   0  0  0  0  0  0  0  0  0  0  0  0
    2.2275   -1.9956    0.0000 C   0  0  0  0  0  0  0  0  0  0  0  0
    3.7171   -1.8191    0.0000 C   0  0  0  0  0  0  0  0  0  0  0  0
    4.6147   -3.0209    0.0000 O   0  0  0  0  0  0  0  0  0  0  0  0
    4.0228   -4.3991    0.0000 C   0  0  0  0  0  0  0  0  0  0  0  0
    4.3091   -0.4408    0.0000 C   0  0  0  0  0  0  0  0  0  0  0  0
    3.4114    0.7609    0.0000 C   0  0  0  0  0  0  0  0  0  0  0  0
    4.0034    2.1392    0.0000 O   0  0  0  0  0  0  0  0  0  0  0  0
   -1.0573    0.2315    0.0000 C   0  0  0  0  0  0  0  0  0  0  0  0
  1  2  1  0
  2  3  1  0
  3  4  1  0
  4  5  1  0
  5  6  2  0
  6  7  1  0
  7  8  2  0
  8  9  1  0
  8 10  1  0
 10 11  1  0
 11 12  2  0
 11 13  1  0
 13 14  2  0
 14 15  1  0
 15 16  2  0
 16 17  1  0
 17 18  1  0
 16 19  1  0
 19 20  2  0
 20 21  1  0
 10 22  2  0
 22  5  1  0
 20 13  1  0
M  END
> <Identifier>
(2-Bromo-5-propoxyphenyl)-(2-hydroxy-4-methoxyphenyl)methanone

> <SkinReaction>
0

$$$$

     RDKit          2D

  6  5  0  0  0  0  0  0  0  0999 V2000
    2.2500    0.8660    0.0000 C   0  0  0  0  0  0  0  0  0  0  0  0
    1.5000   -0.4330    0.0000 C   0  0  0  0  0  0  0  0  0  0  0  0
    0.0000   -0.4330    0.0000 C   0  0  0  0  0  0  0  0  0  0  0  0
   -0.7500   -1.7321    0.0000 C   0  0  0  0  0  0  0  0  0  0  0  0
   -0.7500    0.8660    0.0000 C   0  0  0  0  0  0  0  0  0  0  0  0
   -2.2500    0.8660    0.0000 O   0  0  0  0  0  0  0  0  0  0  0  0
  1  2  1  0
  2  3  2  3
  3  4  1  0
  3  5  1  0
  5  6  2  0
M  END
> <Identifier>
(2E)-2-Methyl-2-butenal

> <SkinReaction>
0

$$$$

     RDKit          2D

 31 35  0  0  0  0  0  0  0  0999 V2000
   -1.8920    1.5031    0.0000 O   0  0  0  0  0  0  0  0  0  0  0  0
   -1.3872    0.0905    0.0000 C   0  0  0  0  0  0  0  0  0  0  0  0
   -0.0927   -0.6671    0.0000 C   0  0  0  0  0  0  0  0  0  0  0  0
    1.2812   -0.0652    0.0000 P   0  0  0  0  0  5  0  0  0  0  0  0
    2.6551    0.5368    0.0000 C   0  0  0  0  0  0  0  0  0  0  0  0
    3.8634   -0.3520    0.0000 C   0  0  0  0  0  0  0  0  0  0  0  0
    5.2373    0.2499    0.0000 C   0  0  0  0  0  0  0  0  0  0  0  0
    5.4030    1.7408    0.0000 C   0  0  0  0  0  0  0  0  0  0  0  0
    4.1947    2.6296    0.0000 C   0  0  0  0  0  0  0  0  0  0  0  0
    2.8208    2.0276    0.0000 C   0  0  0  0  0  0  0  0  0  0  0  0
    1.8832   -1.4391    0.0000 C   0  0  0  0  0  0  0  0  0  0  0  0
    3.3740   -1.6047    0.0000 C   0  0  0  0  0  0  0  0  0  0  0  0
    3.9760   -2.9786    0.0000 C   0  0  0  0  0  0  0  0  0  0  0  0
    3.0872   -4.1869    0.0000 C   0  0  0  0  0  0  0  0  0  0  0  0
    1.5963   -4.0213    0.0000 C   0  0  0  0  0  0  0  0  0  0  0  0
    0.9944   -2.6474    0.0000 C   0  0  0  0  0  0  0  0  0  0  0  0
    0.6793    1.3087    0.0000 C   0  0  0  0  0  0  0  0  0  0  0  0
    1.5681    2.5170    0.0000 C   0  0  0  0  0  0  0  0  0  0  0  0
    0.9661    3.8909    0.0000 C   0  0  0  0  0  0  0  0  0  0  0  0
   -0.5247    4.0566    0.0000 C   0  0  0  0  0  0  0  0  0  0  0  0
   -1.4135    2.8483    0.0000 C   0  0  0  0  0  0  0  0  0  0  0  0
   -0.8116    1.4744    0.0000 C   0  0  0  0  0  0  0  0  0  0  0  0
   -0.4132   -2.1325    0.0000 C   0  0  0  0  0  0  0  0  0  0  0  0
   -1.9059   -2.2804    0.0000 C   0  0  0  0  0  0  0  0  0  0  0  0
   -2.5079   -0.9065    0.0000 N   0  0  0  0  0  0  0  0  0  0  0  0
   -3.9732   -0.5860    0.0000 C   0  0  0  0  0  0  0  0  0  0  0  0
   -4.9835   -1.6947    0.0000 C   0  0  0  0  0  0  0  0  0  0  0  0
   -6.4489   -1.3742    0.0000 C   0  0  0  0  0  0  0  0  0  0  0  0
   -6.9039    0.0551    0.0000 C   0  0  0  0  0  0  0  0  0  0  0  0
   -5.8936    1.1639    0.0000 C   0  0  0  0  0  0  0  0  0  0  0  0
   -4.4283    0.8433    0.0000 C   0  0  0  0  0  0  0  0  0  0  0  0
  1  2  2  0
  2  3  1  0
  3  4  1  0
  4  5  1  0
  5  6  2  0
  6  7  1  0
  7  8  2  0
  8  9  1  0
  9 10  2  0
  4 11  1  0
 11 12  2  0
 12 13  1  0
 13 14  2  0
 14 15  1  0
 15 16  2  0
  4 17  1  0
 17 18  2  0
 18 19  1  0
 19 20  2  0
 20 21  1  0
 21 22  2  0
  3 23  1  0
 23 24  1  0
 24 25  1  0
 25 26  1  0
 26 27  2  0
 27 28  1  0
 28 29  2  0
 29 30  1  0
 30 31  2  0
 25  2  1  0
 31 26  1  0
 10  5  1  0
 16 11  1  0
 22 17  1  0
M  END
> <Identifier>
(2-oxo-1-phenylpyrrolidin-3-yl)-Triphenylphosphanium

> <SkinReaction>
0

$$$$

     RDKit          2D

 10  9  0  0  0  0  0  0  0  0999 V2000
   -3.7121    1.1674    0.0000 C   0  0  0  0  0  0  0  0  0  0  0  0
   -2.4533    0.3516    0.0000 C   0  0  0  0  0  0  0  0  0  0  0  0
   -1.1175    1.0338    0.0000 C   0  0  0  0  0  0  0  0  0  0  0  0
    0.1413    0.2180    0.0000 C   0  0  0  0  0  0  0  0  0  0  0  0
    1.4772    0.9002    0.0000 C   0  0  0  0  0  0  0  0  0  0  0  0
    2.7359    0.0845    0.0000 C   0  0  0  0  0  0  0  0  0  0  0  0
    4.0718    0.7667    0.0000 C   0  0  0  0  0  0  0  0  0  0  0  0
    2.6588   -1.4136    0.0000 C   0  0  0  0  0  0  0  0  0  0  0  0
   -2.5305   -1.1464    0.0000 C   0  0  0  0  0  0  0  0  0  0  0  0
   -1.2717   -1.9622    0.0000 C   0  0  0  0  0  0  0  0  0  0  0  0
  1  2  2  0
  2  3  1  0
  3  4  2  3
  4  5  1  0
  5  6  1  0
  6  7  1  0
  6  8  1  0
  2  9  1  0
  9 10  1  0
M  END
> <Identifier>
(4Z)-2-Methyl-6-methylene-4-octene

> <SkinReaction>
0

$$$$

     RDKit          2D

 36 40  0  0  0  0  0  0  0  0999 V2000
   -1.4240   -4.3016    0.0000 C   0  0  0  0  0  0  0  0  0  0  0  0
   -1.2785   -2.8087    0.0000 C   0  0  0  0  0  0  0  0  0  0  0  0
   -2.4987   -1.9362    0.0000 C   0  0  0  0  0  0  0  0  0  0  0  0
   -3.0256   -3.3406    0.0000 C   0  0  0  0  0  0  0  0  0  0  0  0
   -1.3401   -0.9834    0.0000 C   0  0  0  0  0  0  0  0  0  0  0  0
   -1.1946    0.5095    0.0000 C   0  0  0  0  0  0  0  0  0  0  0  0
    0.2404    0.9464    0.0000 O   0  0  0  0  0  0  0  0  0  0  0  0
    1.3362   -0.0779    0.0000 C   0  0  0  0  0  0  0  0  0  0  0  0
    0.9971   -1.5390    0.0000 O   0  0  0  0  0  0  0  0  0  0  0  0
    2.7712    0.3590    0.0000 C   0  0  0  0  0  0  0  0  0  0  0  0
    3.8670   -0.6653    0.0000 S   0  0  0  0  0  0  0  0  0  0  0  0
    5.3020   -0.2284    0.0000 C   0  0  0  0  0  0  0  0  0  0  0  0
    6.3978   -1.2527    0.0000 C   0  0  0  0  0  0  0  0  0  0  0  0
    7.8328   -0.8158    0.0000 C   0  0  0  0  0  0  0  0  0  0  0  0
    9.0625    0.0431    0.0000 C   0  0  0  0  0  0  0  0  0  0  0  0
    8.6256    1.4781    0.0000 C   0  0  0  0  0  0  0  0  0  0  0  0
    7.1259    1.5060    0.0000 C   0  0  0  0  0  0  0  0  0  0  0  0
    5.6411    1.2327    0.0000 C   0  0  0  0  0  0  0  0  0  0  0  0
    6.6359    0.0883    0.0000 N   0  0  0  0  0  0  0  0  0  0  0  0
    5.8398    0.0476    0.0000 C   0  0  0  0  0  0  0  0  0  0  0  0
   -2.1474    1.6681    0.0000 C   0  0  0  0  0  0  0  0  0  0  0  0
   -1.4416    2.9917    0.0000 C   0  0  0  0  0  0  0  0  0  0  0  0
   -1.8765    0.1825    0.0000 C   0  0  0  0  0  0  0  0  0  0  0  0
   -0.4154   -0.1566    0.0000 C   0  0  0  0  0  0  0  0  0  0  0  0
   -2.9008   -0.9133    0.0000 C   0  0  0  0  0  0  0  0  0  0  0  0
   -4.3620   -0.5741    0.0000 C   0  0  0  0  0  0  0  0  0  0  0  0
   -4.7988    0.8608    0.0000 C   0  0  0  0  0  0  0  0  0  0  0  0
   -6.0630    1.6683    0.0000 C   0  0  0  0  0  0  0  0  0  0  0  0
   -5.6857    3.1200    0.0000 C   0  0  0  0  0  0  0  0  0  0  0  0
   -4.1884    3.2099    0.0000 C   0  0  0  0  0  0  0  0  0  0  0  0
   -3.3810    4.4740    0.0000 O   0  0  0  0  0  0  0  0  0  0  0  0
   -3.6403    1.8136    0.0000 C   0  0  0  0  0  0  0  0  0  0  0  0
   -4.9444   -0.6321    0.0000 C   0  0  0  0  0  0  0  0  0  0  0  0
   -6.3793   -1.0690    0.0000 C   0  0  0  0  0  0  0  0  0  0  0  0
   -3.9916   -1.7907    0.0000 C   0  0  0  0  0  0  0  0  0  0  0  0
   -4.6974   -3.1142    0.0000 O   0  0  0  0  0  0  0  0  0  0  0  0
  1  2  2  0
  2  3  1  0
  3  4  1  0
  3  5  1  0
  5  6  1  0
  6  7  1  0
  7  8  1  0
  8  9  2  0
  8 10  1  0
 10 11  1  0
 11 12  1  0
 12 13  1  0
 13 14  1  0
 14 15  1  0
 15 16  1  0
 16 17  1  0
 17 18  1  0
 17 19  1  0
 19 20  1  0
  6 21  1  0
 21 22  1  0
 21 23  1  0
 23 24  1  0
 23 25  1  0
 25 26  1  0
 26 27  1  0
 27 28  1  0
 28 29  1  0
 29 30  1  0
 30 31  2  0
 30 32  1  0
 27 33  1  0
 33 34  1  0
 33 35  1  0
 35 36  1  0
 35  3  1  0
 18 12  1  0
 32 21  1  0
 19 14  1  0
 32 27  1  0
M  END
> <Identifier>
3-Hydroxy-2,4,7,14-tetramethyl-9-oxo-4-vinyltricyclo[5.4.3.01,8]tetradec-6-yl [(8-methyl-8-azabicyclo[3.2.1]oct-3-yl)sulfanyl]acetate

> <SkinReaction>
0

$$$$

     RDKit          2D

 17 17  0  0  0  0  0  0  0  0999 V2000
   -6.2463    0.3906    0.0000 C   0  0  0  0  0  0  0  0  0  0  0  0
   -5.1332   -0.6149    0.0000 C   0  0  0  0  0  0  0  0  0  0  0  0
   -3.7058   -0.1536    0.0000 O   0  0  0  0  0  0  0  0  0  0  0  0
   -2.5927   -1.1591    0.0000 C   0  0  0  0  0  0  0  0  0  0  0  0
   -1.1654   -0.6978    0.0000 C   0  0  0  0  0  0  0  0  0  0  0  0
   -0.8512    0.7689    0.0000 C   0  0  0  0  0  0  0  0  0  0  0  0
    0.5761    1.2301    0.0000 C   0  0  0  0  0  0  0  0  0  0  0  0
    0.8903    2.6969    0.0000 O   0  0  0  0  0  0  0  0  0  0  0  0
   -0.2228    3.7023    0.0000 C   0  0  0  0  0  0  0  0  0  0  0  0
    1.6892    0.2247    0.0000 C   0  0  0  0  0  0  0  0  0  0  0  0
    3.1166    0.6859    0.0000 B   0  0  0  0  0  0  0  0  0  0  0  0
    4.2297   -0.3195    0.0000 O   0  0  0  0  0  0  0  0  0  0  0  0
    3.4308    2.1526    0.0000 O   0  0  0  0  0  0  0  0  0  0  0  0
    1.3750   -1.2421    0.0000 C   0  0  0  0  0  0  0  0  0  0  0  0
    2.4881   -2.2475    0.0000 O   0  0  0  0  0  0  0  0  0  0  0  0
    2.1739   -3.7142    0.0000 C   0  0  0  0  0  0  0  0  0  0  0  0
   -0.0523   -1.7033    0.0000 C   0  0  0  0  0  0  0  0  0  0  0  0
  1  2  1  0
  2  3  1  0
  3  4  1  0
  4  5  1  0
  5  6  2  0
  6  7  1  0
  7  8  1  0
  8  9  1  0
  7 10  2  0
 10 11  1  0
 11 12  1  0
 11 13  1  0
 10 14  1  0
 14 15  1  0
 15 16  1  0
 14 17  2  0
 17  5  1  0
M  END
> <Identifier>
[4-(Ethoxymethyl)-2,6-dimethoxyphenyl]boronic acid

> <SkinReaction>
0

$$$$

     RDKit          2D

 25 26  0  0  0  0  0  0  0  0999 V2000
   -9.9164   -0.2372    0.0000 C   0  0  0  0  0  0  0  0  0  0  0  0
   -8.6756   -1.0800    0.0000 C   0  0  0  0  0  0  0  0  0  0  0  0
   -7.3253   -0.4268    0.0000 C   0  0  0  0  0  0  0  0  0  0  0  0
   -6.0844   -1.2695    0.0000 C   0  0  0  0  0  0  0  0  0  0  0  0
   -4.7341   -0.6163    0.0000 C   0  0  0  0  0  0  0  0  0  0  0  0
   -4.6247    0.8797    0.0000 C   0  0  0  0  0  0  0  0  0  0  0  0
   -3.2744    1.5330    0.0000 C   0  0  0  0  0  0  0  0  0  0  0  0
   -2.0335    0.6902    0.0000 C   0  0  0  0  0  0  0  0  0  0  0  0
   -0.6832    1.3434    0.0000 C   0  0  0  0  0  0  0  0  0  0  0  0
   -0.5738    2.8394    0.0000 O   0  0  0  0  0  0  0  0  0  0  0  0
    0.5576    0.5007    0.0000 C   0  0  0  0  0  0  0  0  0  0  0  0
    1.9079    1.1539    0.0000 C   0  0  0  0  0  0  0  0  0  0  0  0
    2.0173    2.6499    0.0000 O   0  0  0  0  0  0  0  0  0  0  0  0
    3.1488    0.3111    0.0000 C   0  0  0  0  0  0  0  0  0  0  0  0
    3.0394   -1.1849    0.0000 C   0  0  0  0  0  0  0  0  0  0  0  0
    4.2802   -2.0276    0.0000 C   0  0  0  0  0  0  0  0  0  0  0  0
    4.1708   -3.5236    0.0000 C   0  0  0  0  0  0  0  0  0  0  0  0
    5.6305   -1.3744    0.0000 C   0  0  0  0  0  0  0  0  0  0  0  0
    6.8714   -2.2172    0.0000 C   0  0  0  0  0  0  0  0  0  0  0  0
    5.7399    0.1216    0.0000 C   0  0  0  0  0  0  0  0  0  0  0  0
    7.0902    0.7748    0.0000 C   0  0  0  0  0  0  0  0  0  0  0  0
    4.4991    0.9644    0.0000 C   0  0  0  0  0  0  0  0  0  0  0  0
    4.6085    2.4604    0.0000 C   0  0  0  0  0  0  0  0  0  0  0  0
   -2.1430   -0.8058    0.0000 C   0  0  0  0  0  0  0  0  0  0  0  0
   -3.4932   -1.4591    0.0000 C   0  0  0  0  0  0  0  0  0  0  0  0
  1  2  1  0
  2  3  1  0
  3  4  1  0
  4  5  1  0
  5  6  2  0
  6  7  1  0
  7  8  2  0
  8  9  1  0
  9 10  2  0
  9 11  1  0
 11 12  1  0
 12 13  2  0
 12 14  1  0
 14 15  2  0
 15 16  1  0
 16 17  1  0
 16 18  2  0
 18 19  1  0
 18 20  1  0
 20 21  1  0
 20 22  2  0
 22 23  1  0
  8 24  1  0
 24 25  2  0
 25  5  1  0
 22 14  1  0
M  END
> <Identifier>
1-(2',3',4',5'-Tetramethylphenyl)-3-(4'-tetrabutylphenyl)- propane-1,3-dione

> <SkinReaction>
0

$$$$

     RDKit          2D

 32 34  0  0  0  0  0  0  0  0999 V2000
    2.8773   -1.6205    0.0000 C   0  0  0  0  0  0  0  0  0  0  0  0
    3.2843   -3.0642    0.0000 C   0  0  0  0  0  0  0  0  0  0  0  0
    3.6914   -4.5079    0.0000 C   0  0  0  0  0  0  0  0  0  0  0  0
    4.7280   -2.6572    0.0000 C   0  0  0  0  0  0  0  0  0  0  0  0
    5.0974   -1.2033    0.0000 C   0  0  0  0  0  0  0  0  0  0  0  0
    6.4906   -0.6476    0.0000 C   0  0  0  0  0  0  0  0  0  0  0  0
    6.3927    0.8492    0.0000 C   0  0  0  0  0  0  0  0  0  0  0  0
    7.4394    1.9236    0.0000 C   0  0  0  0  0  0  0  0  0  0  0  0
    7.0324    3.3673    0.0000 C   0  0  0  0  0  0  0  0  0  0  0  0
    5.5786    3.7366    0.0000 C   0  0  0  0  0  0  0  0  0  0  0  0
    4.5318    2.6622    0.0000 C   0  0  0  0  0  0  0  0  0  0  0  0
    4.9388    1.2185    0.0000 C   0  0  0  0  0  0  0  0  0  0  0  0
    4.1383   -0.0500    0.0000 C   0  0  0  0  0  0  0  0  0  0  0  0
    1.8406   -3.4712    0.0000 N   0  0  0  0  0  0  0  0  0  0  0  0
    0.7662   -2.4245    0.0000 C   0  0  0  0  0  0  0  0  0  0  0  0
   -0.6775   -2.8315    0.0000 C   0  0  0  0  0  0  0  0  0  0  0  0
   -1.0468   -4.2853    0.0000 O   0  0  0  0  0  0  0  0  0  0  0  0
   -1.7518   -1.7848    0.0000 C   0  0  0  0  0  0  0  0  0  0  0  0
   -3.1956   -2.1918    0.0000 O   0  0  0  0  0  0  0  0  0  0  0  0
   -4.2699   -1.1450    0.0000 C   0  0  0  0  0  0  0  0  0  0  0  0
   -3.9006    0.3088    0.0000 C   0  0  0  0  0  0  0  0  0  0  0  0
   -4.9750    1.3556    0.0000 C   0  0  0  0  0  0  0  0  0  0  0  0
   -4.6056    2.8094    0.0000 C   0  0  0  0  0  0  0  0  0  0  0  0
   -3.1619    3.2164    0.0000 C   0  0  0  0  0  0  0  0  0  0  0  0
   -2.7925    4.6702    0.0000 C   0  0  0  0  0  0  0  0  0  0  0  0
   -3.8669    5.7170    0.0000 O   0  0  0  0  0  0  0  0  0  0  0  0
   -1.3488    5.0773    0.0000 O   0  0  0  0  0  0  0  0  0  0  0  0
   -6.4187    0.9485    0.0000 C   0  0  0  0  0  0  0  0  0  0  0  0
   -6.7880   -0.5053    0.0000 C   0  0  0  0  0  0  0  0  0  0  0  0
   -8.2317   -0.9124    0.0000 F   0  0  0  0  0  0  0  0  0  0  0  0
   -5.7136   -1.5521    0.0000 C   0  0  0  0  0  0  0  0  0  0  0  0
   -6.0830   -3.0059    0.0000 F   0  0  0  0  0  0  0  0  0  0  0  0
  1  2  1  0
  2  3  1  0
  2  4  1  0
  4  5  1  0
  5  6  1  0
  6  7  1  0
  7  8  2  0
  8  9  1  0
  9 10  2  0
 10 11  1  0
 11 12  2  0
 12 13  1  0
  2 14  1  0
 14 15  1  0
 15 16  1  0
 16 17  1  0
 16 18  1  0
 18 19  1  0
 19 20  1  0
 20 21  2  0
 21 22  1  0
 22 23  1  0
 23 24  1  0
 24 25  1  0
 25 26  2  0
 25 27  1  0
 22 28  2  0
 28 29  1  0
 29 30  1  0
 29 31  2  0
 31 32  1  0
 13  5  1  0
 31 20  1  0
 12  7  1  0
M  END
> <Identifier>
3-[(2R)-3-[[2-(2,3-Dihydro-1H-inden-2-yl)-1,1-dimethyl-ethyl]amino]-2-hydroxypropoxy]-4,5-difluoro-benzene propanoic acid

> <SkinReaction>
0

$$$$

     RDKit          2D

 21 21  0  0  0  0  0  0  0  0999 V2000
    3.5665   -3.4581    0.0000 C   0  0  0  0  0  0  0  0  0  0  0  0
    3.8778   -1.9907    0.0000 O   0  0  0  0  0  0  0  0  0  0  0  0
    2.7626   -0.9875    0.0000 C   0  0  0  0  0  0  0  0  0  0  0  0
    1.3362   -1.4517    0.0000 C   0  0  0  0  0  0  0  0  0  0  0  0
    0.2211   -0.4485    0.0000 C   0  0  0  0  0  0  0  0  0  0  0  0
   -1.2053   -0.9126    0.0000 C   0  0  0  0  0  0  0  0  0  0  0  0
   -1.5165   -2.3800    0.0000 O   0  0  0  0  0  0  0  0  0  0  0  0
   -2.3205    0.0906    0.0000 C   0  0  0  0  0  0  0  0  0  0  0  0
   -3.7469   -0.3736    0.0000 C   0  0  0  0  0  0  0  0  0  0  0  0
   -4.0581   -1.8410    0.0000 O   0  0  0  0  0  0  0  0  0  0  0  0
   -4.8620    0.6296    0.0000 C   0  0  0  0  0  0  0  0  0  0  0  0
   -5.8652   -0.4856    0.0000 C   0  0  0  0  0  0  0  0  0  0  0  0
   -3.8588    1.7448    0.0000 C   0  0  0  0  0  0  0  0  0  0  0  0
   -5.9772    1.6328    0.0000 C   0  0  0  0  0  0  0  0  0  0  0  0
    0.5323    1.0189    0.0000 C   0  0  0  0  0  0  0  0  0  0  0  0
    1.9587    1.4830    0.0000 C   0  0  0  0  0  0  0  0  0  0  0  0
    2.2699    2.9504    0.0000 O   0  0  0  0  0  0  0  0  0  0  0  0
    3.6962    3.4146    0.0000 C   0  0  0  0  0  0  0  0  0  0  0  0
    3.0738    0.4798    0.0000 C   0  0  0  0  0  0  0  0  0  0  0  0
    4.5002    0.9440    0.0000 O   0  0  0  0  0  0  0  0  0  0  0  0
    5.6154   -0.0592    0.0000 C   0  0  0  0  0  0  0  0  0  0  0  0
  1  2  1  0
  2  3  1  0
  3  4  2  0
  4  5  1  0
  5  6  1  0
  6  7  2  0
  6  8  1  0
  8  9  1  0
  9 10  2  0
  9 11  1  0
 11 12  1  0
 11 13  1  0
 11 14  1  0
  5 15  2  0
 15 16  1  0
 16 17  1  0
 17 18  1  0
 16 19  2  0
 19 20  1  0
 20 21  1  0
 19  3  1  0
M  END
> <Identifier>
1-(3',4',5'-Tetramethoxy-phenyl)-4,4-dimethylpentane-1,3-dione

> <SkinReaction>
0

$$$$

     RDKit          2D

 22 23  0  0  0  0  0  0  0  0999 V2000
   -9.0343    0.2885    0.0000 C   0  0  0  0  0  0  0  0  0  0  0  0
   -7.5548    0.5353    0.0000 C   0  0  0  0  0  0  0  0  0  0  0  0
   -6.6012   -0.6225    0.0000 O   0  0  0  0  0  0  0  0  0  0  0  0
   -5.1216   -0.3757    0.0000 C   0  0  0  0  0  0  0  0  0  0  0  0
   -4.5957    1.0291    0.0000 C   0  0  0  0  0  0  0  0  0  0  0  0
   -3.1161    1.2760    0.0000 C   0  0  0  0  0  0  0  0  0  0  0  0
   -2.1626    0.1181    0.0000 C   0  0  0  0  0  0  0  0  0  0  0  0
   -0.6830    0.3649    0.0000 C   0  0  0  0  0  0  0  0  0  0  0  0
   -0.1570    1.7697    0.0000 O   0  0  0  0  0  0  0  0  0  0  0  0
    0.2706   -0.7929    0.0000 C   0  0  0  0  0  0  0  0  0  0  0  0
    1.7501   -0.5461    0.0000 C   0  0  0  0  0  0  0  0  0  0  0  0
    2.7037   -1.7040    0.0000 C   0  0  0  0  0  0  0  0  0  0  0  0
    4.1832   -1.4571    0.0000 C   0  0  0  0  0  0  0  0  0  0  0  0
    4.7092   -0.0523    0.0000 C   0  0  0  0  0  0  0  0  0  0  0  0
    6.1887    0.1945    0.0000 S   0  0  0  0  0  0  0  0  0  0  0  0
    7.6683    0.4414    0.0000 C   0  0  0  0  0  0  0  0  0  0  0  0
    5.9419    1.6741    0.0000 O   0  0  0  0  0  0  0  0  0  0  0  0
    6.4356   -1.2850    0.0000 O   0  0  0  0  0  0  0  0  0  0  0  0
    3.7556    1.1056    0.0000 C   0  0  0  0  0  0  0  0  0  0  0  0
    2.2761    0.8587    0.0000 C   0  0  0  0  0  0  0  0  0  0  0  0
   -2.6885   -1.2867    0.0000 C   0  0  0  0  0  0  0  0  0  0  0  0
   -4.1681   -1.5336    0.0000 C   0  0  0  0  0  0  0  0  0  0  0  0
  1  2  1  0
  2  3  1  0
  3  4  1  0
  4  5  2  0
  5  6  1  0
  6  7  2  0
  7  8  1  0
  8  9  2  0
  8 10  1  0
 10 11  1  0
 11 12  2  0
 12 13  1  0
 13 14  2  0
 14 15  1  0
 15 16  1  0
 15 17  2  0
 15 18  2  0
 14 19  1  0
 19 20  2  0
  7 21  1  0
 21 22  2  0
 22  4  1  0
 20 11  1  0
M  END
> <Identifier>
1-(4-Ethoxyphenyl)-2-[4-(methylsulfonyl)phenyl]ethanone

> <SkinReaction>
0

$$$$

     RDKit          2D

 16 16  0  0  0  0  0  0  0  0999 V2000
    3.8349    1.7627    0.0000 C   0  0  0  0  0  0  0  0  0  0  0  0
    3.3272    0.3512    0.0000 C   0  0  0  0  0  0  0  0  0  0  0  0
    2.8196   -1.0603    0.0000 C   0  0  0  0  0  0  0  0  0  0  0  0
    4.7387   -0.1564    0.0000 C   0  0  0  0  0  0  0  0  0  0  0  0
    1.9157    0.8588    0.0000 O   0  0  0  0  0  0  0  0  0  0  0  0
    0.7704   -0.1097    0.0000 C   0  0  0  0  0  0  0  0  0  0  0  0
    1.0365   -1.5859    0.0000 O   0  0  0  0  0  0  0  0  0  0  0  0
   -0.6411    0.3979    0.0000 N   0  0  0  0  0  0  0  0  0  0  0  0
   -1.0601    1.8382    0.0000 C   0  0  0  0  0  0  0  0  0  0  0  0
   -2.5594    1.8848    0.0000 C   0  0  0  0  0  0  0  0  0  0  0  0
   -3.4029    3.1252    0.0000 F   0  0  0  0  0  0  0  0  0  0  0  0
   -3.0670    0.4733    0.0000 C   0  0  0  0  0  0  0  0  0  0  0  0
   -1.8815   -0.4456    0.0000 C   0  0  0  0  0  0  0  0  0  0  0  0
   -1.9281   -1.9449    0.0000 C   0  0  0  0  0  0  0  0  0  0  0  0
   -3.2498   -2.6542    0.0000 N   0  0  0  0  0  0  0  0  0  0  0  0
   -0.6530   -2.7349    0.0000 O   0  0  0  0  0  0  0  0  0  0  0  0
  1  2  1  0
  2  3  1  0
  2  4  1  0
  2  5  1  0
  5  6  1  0
  6  7  2  0
  6  8  1  0
  8  9  1  0
  9 10  1  0
 10 11  1  0
 10 12  1  0
 12 13  1  0
 13 14  1  0
 14 15  1  0
 14 16  2  0
 13  8  1  0
M  END
> <Identifier>
1-(tert-Butoxycarbonyl)-4-fluoro-L-prolinamide

> <SkinReaction>
0

$$$$

     RDKit          2D

 16 16  0  0  0  0  0  0  0  0999 V2000
    3.8349    1.7627    0.0000 C   0  0  0  0  0  0  0  0  0  0  0  0
    3.3272    0.3512    0.0000 C   0  0  0  0  0  0  0  0  0  0  0  0
    2.8196   -1.0603    0.0000 C   0  0  0  0  0  0  0  0  0  0  0  0
    4.7387   -0.1564    0.0000 C   0  0  0  0  0  0  0  0  0  0  0  0
    1.9157    0.8588    0.0000 O   0  0  0  0  0  0  0  0  0  0  0  0
    0.7704   -0.1097    0.0000 C   0  0  0  0  0  0  0  0  0  0  0  0
    1.0365   -1.5859    0.0000 O   0  0  0  0  0  0  0  0  0  0  0  0
   -0.6411    0.3979    0.0000 N   0  0  0  0  0  0  0  0  0  0  0  0
   -1.0601    1.8382    0.0000 C   0  0  0  0  0  0  0  0  0  0  0  0
   -2.5594    1.8848    0.0000 C   0  0  0  0  0  0  0  0  0  0  0  0
   -3.4029    3.1252    0.0000 F   0  0  0  0  0  0  0  0  0  0  0  0
   -3.0670    0.4733    0.0000 C   0  0  0  0  0  0  0  0  0  0  0  0
   -1.8815   -0.4456    0.0000 C   0  0  0  0  0  0  0  0  0  0  0  0
   -1.9281   -1.9449    0.0000 C   0  0  0  0  0  0  0  0  0  0  0  0
   -0.6530   -2.7349    0.0000 O   0  0  0  0  0  0  0  0  0  0  0  0
   -3.2498   -2.6542    0.0000 O   0  0  0  0  0  0  0  0  0  0  0  0
  1  2  1  0
  2  3  1  0
  2  4  1  0
  2  5  1  0
  5  6  1  0
  6  7  2  0
  6  8  1  0
  8  9  1  0
  9 10  1  0
 10 11  1  0
 10 12  1  0
 12 13  1  0
 13 14  1  0
 14 15  2  0
 14 16  1  0
 13  8  1  0
M  END
> <Identifier>
1-(tert-Butoxycarbonyl)-4-fluoro-L-proline

> <SkinReaction>
0

$$$$

     RDKit          2D

 27 29  0  0  0  0  0  0  0  0999 V2000
   -8.6726   -2.8609    0.0000 C   0  0  0  0  0  0  0  0  0  0  0  0
   -7.9597   -1.5411    0.0000 C   0  0  0  0  0  0  0  0  0  0  0  0
   -6.4730   -1.3421    0.0000 N   0  0  0  0  0  0  0  0  0  0  0  0
   -6.2028    0.1334    0.0000 C   0  0  0  0  0  0  0  0  0  0  0  0
   -4.8503    0.7821    0.0000 C   0  0  0  0  0  0  0  0  0  0  0  0
   -3.6123   -0.0648    0.0000 O   0  0  0  0  0  0  0  0  0  0  0  0
   -2.2598    0.5839    0.0000 C   0  0  0  0  0  0  0  0  0  0  0  0
   -1.0218   -0.2630    0.0000 C   0  0  0  0  0  0  0  0  0  0  0  0
    0.3307    0.3857    0.0000 C   0  0  0  0  0  0  0  0  0  0  0  0
    0.4451    1.8813    0.0000 C   0  0  0  0  0  0  0  0  0  0  0  0
    1.7976    2.5300    0.0000 C   0  0  0  0  0  0  0  0  0  0  0  0
    3.0356    1.6831    0.0000 C   0  0  0  0  0  0  0  0  0  0  0  0
    2.9212    0.1875    0.0000 N   0  0  0  0  0  0  0  0  0  0  0  0
    4.1592   -0.6594    0.0000 C   0  0  0  0  0  0  0  0  0  0  0  0
    5.5117   -0.0107    0.0000 O   0  0  0  0  0  0  0  0  0  0  0  0
    4.0448   -2.1551    0.0000 O   0  0  0  0  0  0  0  0  0  0  0  0
    5.2828   -3.0020    0.0000 C   0  0  0  0  0  0  0  0  0  0  0  0
    4.4359   -4.2400    0.0000 C   0  0  0  0  0  0  0  0  0  0  0  0
    6.1297   -1.7639    0.0000 C   0  0  0  0  0  0  0  0  0  0  0  0
    6.5208   -3.8489    0.0000 C   0  0  0  0  0  0  0  0  0  0  0  0
    4.3881    2.3318    0.0000 C   0  0  0  0  0  0  0  0  0  0  0  0
    5.2350    3.5699    0.0000 C   0  0  0  0  0  0  0  0  0  0  0  0
    5.8837    2.2174    0.0000 O   0  0  0  0  0  0  0  0  0  0  0  0
   -0.7929    2.7283    0.0000 C   0  0  0  0  0  0  0  0  0  0  0  0
   -2.1454    2.0795    0.0000 C   0  0  0  0  0  0  0  0  0  0  0  0
   -7.5226    0.8463    0.0000 C   0  0  0  0  0  0  0  0  0  0  0  0
   -8.6084   -0.1886    0.0000 S   0  0  0  0  0  0  0  0  0  0  0  0
  1  2  1  0
  2  3  2  0
  3  4  1  0
  4  5  1  0
  5  6  1  0
  6  7  1  0
  7  8  2  0
  8  9  1  0
  9 10  2  0
 10 11  1  0
 11 12  1  0
 12 13  1  0
 13 14  1  0
 14 15  2  0
 14 16  1  0
 16 17  1  0
 17 18  1  0
 17 19  1  0
 17 20  1  0
 12 21  1  0
 21 22  1  0
 22 23  1  0
 10 24  1  0
 24 25  2  0
  4 26  2  0
 26 27  1  0
 27  2  1  0
 25  7  1  0
 23 21  1  0
M  END
> <Identifier>
1,1-Dimethylethyl[(1s)-2-[4-[(2-methyl-4-thiazolyl)methoxy]phenyl]-1-(2s)-oxiranylethyl]-carbamate

> <SkinReaction>
0

$$$$

     RDKit          2D

 34 36  0  0  0  0  0  0  0  0999 V2000
    4.7597    3.5169    0.0000 C   0  0  0  0  0  0  0  0  0  0  0  0
    4.5358    2.0337    0.0000 C   0  0  0  0  0  0  0  0  0  0  0  0
    4.3120    0.5505    0.0000 C   0  0  0  0  0  0  0  0  0  0  0  0
    6.0190    1.8098    0.0000 C   0  0  0  0  0  0  0  0  0  0  0  0
    3.0526    2.2575    0.0000 O   0  0  0  0  0  0  0  0  0  0  0  0
    2.1171    1.0849    0.0000 C   0  0  0  0  0  0  0  0  0  0  0  0
    2.5792    0.4353    0.0000 O   0  0  0  0  0  0  0  0  0  0  0  0
    0.6339    1.3088    0.0000 N   0  0  0  0  0  0  0  0  0  0  0  0
   -0.3015    0.1362    0.0000 C   0  0  0  0  0  0  0  0  0  0  0  0
    0.2462   -1.2602    0.0000 C   0  0  0  0  0  0  0  0  0  0  0  0
   -0.6893   -2.4327    0.0000 O   0  0  0  0  0  0  0  0  0  0  0  0
    1.7294   -1.4840    0.0000 N   0  0  0  0  0  0  0  0  0  0  0  0
    2.7823   -0.4157    0.0000 C   0  0  0  0  0  0  0  0  0  0  0  0
    4.1238   -1.0869    0.0000 C   0  0  0  0  0  0  0  0  0  0  0  0
    5.4553   -0.3962    0.0000 F   0  0  0  0  0  0  0  0  0  0  0  0
    3.8999   -2.5701    0.0000 C   0  0  0  0  0  0  0  0  0  0  0  0
    2.4201   -2.8155    0.0000 C   0  0  0  0  0  0  0  0  0  0  0  0
    1.7489   -4.1570    0.0000 C   0  0  0  0  0  0  0  0  0  0  0  0
    1.0776   -5.4984    0.0000 N   0  0  0  0  0  0  0  0  0  0  0  0
   -1.7847    0.3601    0.0000 C   0  0  0  0  0  0  0  0  0  0  0  0
   -2.3325    1.7565    0.0000 C   0  0  0  0  0  0  0  0  0  0  0  0
   -1.3970    2.9291    0.0000 C   0  0  0  0  0  0  0  0  0  0  0  0
   -1.9447    4.3255    0.0000 C   0  0  0  0  0  0  0  0  0  0  0  0
   -3.4279    4.5494    0.0000 C   0  0  0  0  0  0  0  0  0  0  0  0
   -3.9757    5.9458    0.0000 F   0  0  0  0  0  0  0  0  0  0  0  0
   -4.3634    3.3768    0.0000 C   0  0  0  0  0  0  0  0  0  0  0  0
   -3.8157    1.9804    0.0000 C   0  0  0  0  0  0  0  0  0  0  0  0
   -2.7202   -0.8125    0.0000 C   0  0  0  0  0  0  0  0  0  0  0  0
   -4.2034   -0.5886    0.0000 C   0  0  0  0  0  0  0  0  0  0  0  0
   -5.1389   -1.7612    0.0000 C   0  0  0  0  0  0  0  0  0  0  0  0
   -4.5911   -3.1576    0.0000 C   0  0  0  0  0  0  0  0  0  0  0  0
   -5.5266   -4.3302    0.0000 F   0  0  0  0  0  0  0  0  0  0  0  0
   -3.1079   -3.3814    0.0000 C   0  0  0  0  0  0  0  0  0  0  0  0
   -2.1725   -2.2089    0.0000 C   0  0  0  0  0  0  0  0  0  0  0  0
  1  2  1  0
  2  3  1  0
  2  4  1  0
  2  5  1  0
  5  6  1  0
  6  7  2  0
  6  8  1  0
  8  9  1  0
  9 10  1  0
 10 11  2  0
 10 12  1  0
 12 13  1  0
 13 14  1  0
 14 15  1  0
 14 16  1  0
 16 17  1  0
 17 18  1  0
 18 19  3  0
  9 20  1  0
 20 21  1  0
 21 22  2  0
 22 23  1  0
 23 24  2  0
 24 25  1  0
 24 26  1  0
 26 27  2  0
 20 28  1  0
 28 29  2  0
 29 30  1  0
 30 31  2  0
 31 32  1  0
 31 33  1  0
 33 34  2  0
 17 12  1  0
 27 21  1  0
 34 28  1  0
M  END
> <Identifier>
1,1-Dimethylethyl[1-[bis(4-fluorophenyl)-methyl]-2-[2-cyano-4-fluoro-1-pyrrolidinyl]-2-oxoethyl]carbamate

> <SkinReaction>
0

$$$$

     RDKit          2D

 11 12  0  0  0  0  0  0  0  0999 V2000
    0.0884   -2.9219    0.0000 O   0  0  0  0  0  0  0  0  0  0  0  0
    0.3452   -1.4440    0.0000 C   0  0  0  0  0  0  0  0  0  0  0  0
    1.7535   -0.9275    0.0000 N   0  0  0  0  0  0  0  0  0  0  0  0
    2.0102    0.5504    0.0000 C   0  0  0  0  0  0  0  0  0  0  0  0
    3.4185    1.0669    0.0000 S   0  0  0  0  0  0  0  0  0  0  0  0
    0.8588    1.5117    0.0000 N   0  0  0  0  0  0  0  0  0  0  0  0
   -0.5495    0.9951    0.0000 C   0  0  0  0  0  0  0  0  0  0  0  0
   -0.8063   -0.4827    0.0000 C   0  0  0  0  0  0  0  0  0  0  0  0
   -2.2911   -0.6952    0.0000 C   0  0  0  0  0  0  0  0  0  0  0  0
   -2.9521    0.6513    0.0000 C   0  0  0  0  0  0  0  0  0  0  0  0
   -1.8757    1.6960    0.0000 C   0  0  0  0  0  0  0  0  0  0  0  0
  1  2  2  0
  2  3  1  0
  3  4  1  0
  4  5  2  0
  4  6  1  0
  6  7  1  0
  7  8  2  0
  8  9  1  0
  9 10  1  0
 10 11  1  0
  8  2  1  0
 11  7  1  0
M  END
> <Identifier>
1,2,3,5,6,7-Hexahydro-2-thioxo-4h-cyclopentapyrimi-din-4-one

> <SkinReaction>
0

$$$$

     RDKit          2D

 21 22  0  0  0  0  0  0  0  0999 V2000
   -3.8971   -3.4643    0.0000 C   0  0  0  0  0  0  0  0  0  0  0  0
   -3.8971   -1.9643    0.0000 C   0  0  0  0  0  0  0  0  0  0  0  0
   -5.1962   -1.2143    0.0000 C   0  0  0  0  0  0  0  0  0  0  0  0
   -5.1962    0.2857    0.0000 C   0  0  0  0  0  0  0  0  0  0  0  0
   -3.8971    1.0357    0.0000 C   0  0  0  0  0  0  0  0  0  0  0  0
   -3.8971    2.5357    0.0000 C   0  0  0  0  0  0  0  0  0  0  0  0
   -2.5981    0.2857    0.0000 C   0  0  0  0  0  0  0  0  0  0  0  0
   -1.2990    1.0357    0.0000 C   0  0  0  0  0  0  0  0  0  0  0  0
   -1.2990    2.5357    0.0000 O   0  0  0  0  0  0  0  0  0  0  0  0
   -0.0000    0.2857    0.0000 C   0  0  0  0  0  0  0  0  0  0  0  0
    1.2990    1.0357    0.0000 C   0  0  0  0  0  0  0  0  0  0  0  0
    1.2990    2.5357    0.0000 O   0  0  0  0  0  0  0  0  0  0  0  0
    2.5981    0.2857    0.0000 C   0  0  0  0  0  0  0  0  0  0  0  0
    2.5981   -1.2143    0.0000 C   0  0  0  0  0  0  0  0  0  0  0  0
    3.8971   -1.9643    0.0000 C   0  0  0  0  0  0  0  0  0  0  0  0
    3.8971   -3.4643    0.0000 C   0  0  0  0  0  0  0  0  0  0  0  0
    5.1962   -1.2143    0.0000 C   0  0  0  0  0  0  0  0  0  0  0  0
    5.1962    0.2857    0.0000 C   0  0  0  0  0  0  0  0  0  0  0  0
    3.8971    1.0357    0.0000 C   0  0  0  0  0  0  0  0  0  0  0  0
    3.8971    2.5357    0.0000 C   0  0  0  0  0  0  0  0  0  0  0  0
   -2.5981   -1.2143    0.0000 C   0  0  0  0  0  0  0  0  0  0  0  0
  1  2  1  0
  2  3  2  0
  3  4  1  0
  4  5  2  0
  5  6  1  0
  5  7  1  0
  7  8  1  0
  8  9  2  0
  8 10  1  0
 10 11  1  0
 11 12  2  0
 11 13  1  0
 13 14  2  0
 14 15  1  0
 15 16  1  0
 15 17  2  0
 17 18  1  0
 18 19  2  0
 19 20  1  0
  7 21  2  0
 21  2  1  0
 19 13  1  0
M  END
> <Identifier>
1,3-bis(2,5-dimethylphenyl)propane-1,3-dione

> <SkinReaction>
0

$$$$

     RDKit          2D

 14 15  0  0  0  0  0  0  0  0999 V2000
   -0.7774   -2.4325    0.0000 C   0  0  0  0  0  0  0  0  0  0  0  0
   -1.2044   -0.9946    0.0000 C   0  0  0  0  0  0  0  0  0  0  0  0
   -0.2921    0.1961    0.0000 C   0  0  0  0  0  0  0  0  0  0  0  0
    1.2074    0.1579    0.0000 C   0  0  0  0  0  0  0  0  0  0  0  0
    1.9241   -1.1598    0.0000 C   0  0  0  0  0  0  0  0  0  0  0  0
    3.4236   -1.1980    0.0000 C   0  0  0  0  0  0  0  0  0  0  0  0
    4.2064    0.0815    0.0000 C   0  0  0  0  0  0  0  0  0  0  0  0
    3.4897    1.3992    0.0000 C   0  0  0  0  0  0  0  0  0  0  0  0
    1.9902    1.4374    0.0000 C   0  0  0  0  0  0  0  0  0  0  0  0
   -1.1426    1.4317    0.0000 N   0  0  0  0  0  0  0  0  0  0  0  0
   -2.5805    1.0046    0.0000 C   0  0  0  0  0  0  0  0  0  0  0  0
   -3.7712    1.9169    0.0000 O   0  0  0  0  0  0  0  0  0  0  0  0
   -2.6187   -0.4949    0.0000 N   0  0  0  0  0  0  0  0  0  0  0  0
   -3.8543   -1.3454    0.0000 C   0  0  0  0  0  0  0  0  0  0  0  0
  1  2  1  0
  2  3  1  0
  3  4  1  0
  4  5  2  0
  5  6  1  0
  6  7  2  0
  7  8  1  0
  8  9  2  0
  3 10  1  0
 10 11  1  0
 11 12  2  0
 11 13  1  0
 13 14  1  0
 13  2  1  0
  9  4  1  0
M  END
> <Identifier>
1,5-Dimethyl-4-phenyl-2-imidazolidinone

> <SkinReaction>
0

$$$$

     RDKit          2D

 55 62  0  0  0  0  0  0  0  0999 V2000
    5.9356   -7.5490    0.0000 C   0  0  0  0  0  0  0  0  0  0  0  0
    5.8336   -6.0524    0.0000 C   0  0  0  0  0  0  0  0  0  0  0  0
    4.4865   -5.3925    0.0000 C   0  0  0  0  0  0  0  0  0  0  0  0
    4.3845   -3.8960    0.0000 O   0  0  0  0  0  0  0  0  0  0  0  0
    3.0375   -3.2361    0.0000 C   0  0  0  0  0  0  0  0  0  0  0  0
    1.7925   -4.0727    0.0000 C   0  0  0  0  0  0  0  0  0  0  0  0
    0.4454   -3.4128    0.0000 C   0  0  0  0  0  0  0  0  0  0  0  0
    0.3434   -1.9162    0.0000 C   0  0  0  0  0  0  0  0  0  0  0  0
    1.5884   -1.0796    0.0000 C   0  0  0  0  0  0  0  0  0  0  0  0
    2.9355   -1.7395    0.0000 C   0  0  0  0  0  0  0  0  0  0  0  0
    1.1775    0.3630    0.0000 C   0  0  0  0  0  0  0  0  0  0  0  0
    2.6551    0.6209    0.0000 O   0  0  0  0  0  0  0  0  0  0  0  0
    1.0755    1.8595    0.0000 C   0  0  0  0  0  0  0  0  0  0  0  0
   -0.2716    2.5194    0.0000 C   0  0  0  0  0  0  0  0  0  0  0  0
   -0.3736    4.0159    0.0000 C   0  0  0  0  0  0  0  0  0  0  0  0
    0.8714    4.8526    0.0000 C   0  0  0  0  0  0  0  0  0  0  0  0
    0.7694    6.3491    0.0000 O   0  0  0  0  0  0  0  0  0  0  0  0
   -0.5776    7.0090    0.0000 C   0  0  0  0  0  0  0  0  0  0  0  0
    2.2185    4.1926    0.0000 C   0  0  0  0  0  0  0  0  0  0  0  0
    2.3205    2.6961    0.0000 C   0  0  0  0  0  0  0  0  0  0  0  0
    3.6675    2.0362    0.0000 O   0  0  0  0  0  0  0  0  0  0  0  0
    4.9125    2.8728    0.0000 C   0  0  0  0  0  0  0  0  0  0  0  0
    6.2596    2.2129    0.0000 C   0  0  0  0  0  0  0  0  0  0  0  0
    7.5046    3.0495    0.0000 C   0  0  0  0  0  0  0  0  0  0  0  0
    8.8516    2.3896    0.0000 C   0  0  0  0  0  0  0  0  0  0  0  0
    8.9537    0.8931    0.0000 C   0  0  0  0  0  0  0  0  0  0  0  0
    7.7086    0.0565    0.0000 C   0  0  0  0  0  0  0  0  0  0  0  0
    6.3616    0.7164    0.0000 C   0  0  0  0  0  0  0  0  0  0  0  0
   -0.3215    0.4180    0.0000 C   0  0  0  0  0  0  0  0  0  0  0  0
   -1.1581    1.6630    0.0000 C   0  0  0  0  0  0  0  0  0  0  0  0
   -0.8438    3.1297    0.0000 O   0  0  0  0  0  0  0  0  0  0  0  0
   -2.6546    1.5610    0.0000 N   0  0  0  0  0  0  0  0  0  0  0  0
   -3.6168    2.7117    0.0000 C   0  0  0  0  0  0  0  0  0  0  0  0
   -3.2514    4.1665    0.0000 O   0  0  0  0  0  0  0  0  0  0  0  0
   -5.0086    2.1522    0.0000 N   0  0  0  0  0  0  0  0  0  0  0  0
   -6.2793    2.9493    0.0000 C   0  0  0  0  0  0  0  0  0  0  0  0
   -4.9066    0.6557    0.0000 C   0  0  0  0  0  0  0  0  0  0  0  0
   -6.2559    0.0006    0.0000 C   0  0  0  0  0  0  0  0  0  0  0  0
   -3.4517    0.2903    0.0000 C   0  0  0  0  0  0  0  0  0  0  0  0
   -2.8923   -1.1015    0.0000 C   0  0  0  0  0  0  0  0  0  0  0  0
   -1.4072   -1.3128    0.0000 C   0  0  0  0  0  0  0  0  0  0  0  0
   -0.8478   -2.7046    0.0000 C   0  0  0  0  0  0  0  0  0  0  0  0
   -1.7733   -3.8850    0.0000 C   0  0  0  0  0  0  0  0  0  0  0  0
   -3.2584   -3.6736    0.0000 C   0  0  0  0  0  0  0  0  0  0  0  0
   -3.8178   -2.2819    0.0000 C   0  0  0  0  0  0  0  0  0  0  0  0
   -0.8370   -0.9907    0.0000 C   0  0  0  0  0  0  0  0  0  0  0  0
   -2.2796   -1.4016    0.0000 C   0  0  0  0  0  0  0  0  0  0  0  0
   -2.6450   -2.8564    0.0000 C   0  0  0  0  0  0  0  0  0  0  0  0
   -4.0877   -3.2674    0.0000 C   0  0  0  0  0  0  0  0  0  0  0  0
   -5.1648   -2.2235    0.0000 C   0  0  0  0  0  0  0  0  0  0  0  0
   -4.7994   -0.7687    0.0000 C   0  0  0  0  0  0  0  0  0  0  0  0
   -3.3568   -0.3577    0.0000 C   0  0  0  0  0  0  0  0  0  0  0  0
   -6.0701    0.0284    0.0000 O   0  0  0  0  0  0  0  0  0  0  0  0
   -7.2208   -0.9337    0.0000 C   0  0  0  0  0  0  0  0  0  0  0  0
   -6.6614   -2.3255    0.0000 O   0  0  0  0  0  0  0  0  0  0  0  0
  1  2  1  0
  2  3  1  0
  3  4  1  0
  4  5  1  0
  5  6  2  0
  6  7  1  0
  7  8  2  0
  8  9  1  0
  9 10  2  0
  9 11  1  0
 11 12  1  0
 11 13  1  0
 13 14  2  0
 14 15  1  0
 15 16  2  0
 16 17  1  0
 17 18  1  0
 16 19  1  0
 19 20  2  0
 20 21  1  0
 21 22  1  0
 22 23  1  0
 23 24  2  0
 24 25  1  0
 25 26  2  0
 26 27  1  0
 27 28  2  0
 11 29  1  0
 29 30  1  0
 30 31  2  0
 30 32  1  0
 32 33  1  0
 33 34  2  0
 33 35  1  0
 35 36  1  0
 35 37  1  0
 37 38  1  0
 37 39  1  0
 39 40  1  0
 40 41  2  0
 41 42  1  0
 42 43  2  0
 43 44  1  0
 44 45  2  0
 29 46  1  0
 46 47  1  0
 47 48  2  0
 48 49  1  0
 49 50  2  0
 50 51  1  0
 51 52  2  0
 51 53  1  0
 53 54  1  0
 54 55  1  0
 10  5  1  0
 20 13  1  0
 28 23  1  0
 39 32  1  0
 45 40  1  0
 52 47  1  0
 46  8  1  0
 55 50  1  0
M  END
> <Identifier>
1-[1-3-(1,3-Benzodioxol-5-yl)-(2-benzyloxy-4- methoxyphenyl)-1- hydroxy-6- propoxy-2-indanoyl]-3,4- dimethyl-5-phenyl-imidazolidinone

> <SkinReaction>
0

$$$$

     RDKit          2D

 27 29  0  0  0  0  0  0  0  0999 V2000
   -4.7929    2.6575    0.0000 N   0  0  0  0  0  0  0  0  0  0  0  0
   -4.4817    1.1901    0.0000 C   0  0  0  0  0  0  0  0  0  0  0  0
   -4.1704   -0.2772    0.0000 C   0  0  0  0  0  0  0  0  0  0  0  0
   -5.1746   -1.3915    0.0000 C   0  0  0  0  0  0  0  0  0  0  0  0
   -4.4252   -2.6909    0.0000 C   0  0  0  0  0  0  0  0  0  0  0  0
   -5.0359   -4.0609    0.0000 F   0  0  0  0  0  0  0  0  0  0  0  0
   -2.9579   -2.3796    0.0000 C   0  0  0  0  0  0  0  0  0  0  0  0
   -2.8004   -0.8879    0.0000 N   0  0  0  0  0  0  0  0  0  0  0  0
   -1.5010   -0.1385    0.0000 C   0  0  0  0  0  0  0  0  0  0  0  0
   -1.5004    1.3615    0.0000 O   0  0  0  0  0  0  0  0  0  0  0  0
   -0.2023   -0.8891    0.0000 C   0  0  0  0  0  0  0  0  0  0  0  0
   -0.2030   -2.3891    0.0000 N   0  0  0  0  0  0  0  0  0  0  0  0
    1.0970   -0.1397    0.0000 C   0  0  0  0  0  0  0  0  0  0  0  0
    2.3958   -0.8903    0.0000 C   0  0  0  0  0  0  0  0  0  0  0  0
    2.3951   -2.3903    0.0000 C   0  0  0  0  0  0  0  0  0  0  0  0
    3.6938   -3.1408    0.0000 C   0  0  0  0  0  0  0  0  0  0  0  0
    4.9932   -2.3914    0.0000 C   0  0  0  0  0  0  0  0  0  0  0  0
    6.2919   -3.1420    0.0000 F   0  0  0  0  0  0  0  0  0  0  0  0
    4.9938   -0.8914    0.0000 C   0  0  0  0  0  0  0  0  0  0  0  0
    3.6951   -0.1408    0.0000 C   0  0  0  0  0  0  0  0  0  0  0  0
    1.0977    1.3603    0.0000 C   0  0  0  0  0  0  0  0  0  0  0  0
    2.3971    2.1097    0.0000 C   0  0  0  0  0  0  0  0  0  0  0  0
    2.3978    3.6097    0.0000 C   0  0  0  0  0  0  0  0  0  0  0  0
    1.0991    4.3603    0.0000 C   0  0  0  0  0  0  0  0  0  0  0  0
    1.0997    5.8603    0.0000 F   0  0  0  0  0  0  0  0  0  0  0  0
   -0.2003    3.6109    0.0000 C   0  0  0  0  0  0  0  0  0  0  0  0
   -0.2010    2.1109    0.0000 C   0  0  0  0  0  0  0  0  0  0  0  0
  1  2  3  0
  2  3  1  0
  3  4  1  0
  4  5  1  0
  5  6  1  0
  5  7  1  0
  7  8  1  0
  8  9  1  0
  9 10  2  0
  9 11  1  0
 11 12  1  0
 11 13  1  0
 13 14  1  0
 14 15  2  0
 15 16  1  0
 16 17  2  0
 17 18  1  0
 17 19  1  0
 19 20  2  0
 13 21  1  0
 21 22  2  0
 22 23  1  0
 23 24  2  0
 24 25  1  0
 24 26  1  0
 26 27  2  0
  8  3  1  0
 20 14  1  0
 27 21  1  0
M  END
> <Identifier>
1-[2-Amino-3,3-bis(4-fluorophenyl)-1-oxopropyl]-4-fluoro-2-pyrrolidine carbonitrile

> <SkinReaction>
0

$$$$

     RDKit          2D

 46 50  0  0  0  0  0  0  0  0999 V2000
   -0.4685   -9.2190    0.0000 C   0  0  0  0  0  0  0  0  0  0  0  0
    0.5244   -8.0948    0.0000 C   0  0  0  0  0  0  0  0  0  0  0  0
    0.0473   -6.6727    0.0000 C   0  0  0  0  0  0  0  0  0  0  0  0
    1.0402   -5.5484    0.0000 O   0  0  0  0  0  0  0  0  0  0  0  0
    0.5631   -4.1263    0.0000 C   0  0  0  0  0  0  0  0  0  0  0  0
   -0.9071   -3.8285    0.0000 C   0  0  0  0  0  0  0  0  0  0  0  0
   -1.3842   -2.4064    0.0000 C   0  0  0  0  0  0  0  0  0  0  0  0
   -0.3913   -1.2822    0.0000 C   0  0  0  0  0  0  0  0  0  0  0  0
   -0.8684    0.1399    0.0000 C   0  0  0  0  0  0  0  0  0  0  0  0
   -2.3386    0.4377    0.0000 C   0  0  0  0  0  0  0  0  0  0  0  0
   -2.8157    1.8598    0.0000 C   0  0  0  0  0  0  0  0  0  0  0  0
   -1.8228    2.9841    0.0000 O   0  0  0  0  0  0  0  0  0  0  0  0
   -4.2859    2.1576    0.0000 N   0  0  0  0  0  0  0  0  0  0  0  0
   -4.9091    3.5220    0.0000 C   0  0  0  0  0  0  0  0  0  0  0  0
   -4.1716    4.8282    0.0000 O   0  0  0  0  0  0  0  0  0  0  0  0
   -6.3993    3.3509    0.0000 N   0  0  0  0  0  0  0  0  0  0  0  0
   -7.4136    4.4560    0.0000 C   0  0  0  0  0  0  0  0  0  0  0  0
   -6.6971    1.8808    0.0000 C   0  0  0  0  0  0  0  0  0  0  0  0
   -8.0615    1.2576    0.0000 C   0  0  0  0  0  0  0  0  0  0  0  0
   -5.3909    1.1433    0.0000 C   0  0  0  0  0  0  0  0  0  0  0  0
   -5.2199   -0.3469    0.0000 C   0  0  0  0  0  0  0  0  0  0  0  0
   -3.8438   -0.9439    0.0000 C   0  0  0  0  0  0  0  0  0  0  0  0
   -3.6727   -2.4341    0.0000 C   0  0  0  0  0  0  0  0  0  0  0  0
   -4.8777   -3.3274    0.0000 C   0  0  0  0  0  0  0  0  0  0  0  0
   -6.2538   -2.7304    0.0000 C   0  0  0  0  0  0  0  0  0  0  0  0
   -6.4249   -1.2402    0.0000 C   0  0  0  0  0  0  0  0  0  0  0  0
    1.0789   -1.5800    0.0000 C   0  0  0  0  0  0  0  0  0  0  0  0
    2.0718   -0.4557    0.0000 C   0  0  0  0  0  0  0  0  0  0  0  0
    1.5947    0.9664    0.0000 O   0  0  0  0  0  0  0  0  0  0  0  0
    3.5420   -0.7535    0.0000 C   0  0  0  0  0  0  0  0  0  0  0  0
    4.0192   -2.1756    0.0000 C   0  0  0  0  0  0  0  0  0  0  0  0
    5.4893   -2.4734    0.0000 C   0  0  0  0  0  0  0  0  0  0  0  0
    6.4823   -1.3491    0.0000 C   0  0  0  0  0  0  0  0  0  0  0  0
    7.9524   -1.6469    0.0000 O   0  0  0  0  0  0  0  0  0  0  0  0
    8.4296   -3.0690    0.0000 C   0  0  0  0  0  0  0  0  0  0  0  0
    6.0051    0.0730    0.0000 C   0  0  0  0  0  0  0  0  0  0  0  0
    4.5350    0.3708    0.0000 C   0  0  0  0  0  0  0  0  0  0  0  0
    4.0578    1.7929    0.0000 O   0  0  0  0  0  0  0  0  0  0  0  0
    5.0508    2.9172    0.0000 C   0  0  0  0  0  0  0  0  0  0  0  0
    4.5736    4.3392    0.0000 C   0  0  0  0  0  0  0  0  0  0  0  0
    5.5666    5.4635    0.0000 C   0  0  0  0  0  0  0  0  0  0  0  0
    5.0894    6.8856    0.0000 C   0  0  0  0  0  0  0  0  0  0  0  0
    3.6193    7.1834    0.0000 C   0  0  0  0  0  0  0  0  0  0  0  0
    2.6263    6.0591    0.0000 C   0  0  0  0  0  0  0  0  0  0  0  0
    3.1035    4.6370    0.0000 C   0  0  0  0  0  0  0  0  0  0  0  0
    1.5560   -3.0020    0.0000 C   0  0  0  0  0  0  0  0  0  0  0  0
  1  2  1  0
  2  3  1  0
  3  4  1  0
  4  5  1  0
  5  6  2  0
  6  7  1  0
  7  8  2  0
  8  9  1  0
  9 10  2  3
 10 11  1  0
 11 12  2  0
 11 13  1  0
 13 14  1  0
 14 15  2  0
 14 16  1  0
 16 17  1  0
 16 18  1  0
 18 19  1  0
 18 20  1  0
 20 21  1  0
 21 22  2  0
 22 23  1  0
 23 24  2  0
 24 25  1  0
 25 26  2  0
  8 27  1  0
 27 28  1  0
 28 29  2  0
 28 30  1  0
 30 31  2  0
 31 32  1  0
 32 33  2  0
 33 34  1  0
 34 35  1  0
 33 36  1  0
 36 37  2  0
 37 38  1  0
 38 39  1  0
 39 40  1  0
 40 41  2  0
 41 42  1  0
 42 43  2  0
 43 44  1  0
 44 45  2  0
 27 46  2  0
 46  5  1  0
 20 13  1  0
 26 21  1  0
 37 30  1  0
 45 40  1  0
M  END
> <Identifier>
[4S-[1(E),4alpha,5alpha]]-1-[3-[2-[4-Methoxy-2-(phenylmethoxy)-benzoyl]-4-propoxyphenyl]-1-oxo-2-propenyl]-3,4-dimethyl-5-phenyl-2-imidazoli-dinone

> <SkinReaction>
0

$$$$

     RDKit          2D

 23 25  0  0  0  0  0  0  0  0999 V2000
    4.2874   -3.6179    0.0000 C   0  0  0  0  0  0  0  0  0  0  0  0
    3.8296   -2.1895    0.0000 O   0  0  0  0  0  0  0  0  0  0  0  0
    2.3637   -1.8717    0.0000 C   0  0  0  0  0  0  0  0  0  0  0  0
    1.3555   -2.9824    0.0000 C   0  0  0  0  0  0  0  0  0  0  0  0
   -0.1104   -2.6646    0.0000 C   0  0  0  0  0  0  0  0  0  0  0  0
   -0.5682   -1.2362    0.0000 C   0  0  0  0  0  0  0  0  0  0  0  0
   -2.0342   -0.9184    0.0000 C   0  0  0  0  0  0  0  0  0  0  0  0
   -2.0926   -2.4173    0.0000 C   0  0  0  0  0  0  0  0  0  0  0  0
   -2.1509   -3.9162    0.0000 N   0  0  0  0  0  0  0  0  0  0  0  0
   -1.4667    0.4701    0.0000 C   0  0  0  0  0  0  0  0  0  0  0  0
   -2.3854    1.6558    0.0000 C   0  0  0  0  0  0  0  0  0  0  0  0
   -3.8717    1.4530    0.0000 C   0  0  0  0  0  0  0  0  0  0  0  0
   -4.7904    2.6387    0.0000 O   0  0  0  0  0  0  0  0  0  0  0  0
   -4.4392    0.0645    0.0000 C   0  0  0  0  0  0  0  0  0  0  0  0
   -3.5204   -1.1212    0.0000 C   0  0  0  0  0  0  0  0  0  0  0  0
    0.4399   -0.1255    0.0000 C   0  0  0  0  0  0  0  0  0  0  0  0
    1.9059   -0.4433    0.0000 C   0  0  0  0  0  0  0  0  0  0  0  0
    2.9140    0.6674    0.0000 O   0  0  0  0  0  0  0  0  0  0  0  0
    2.4562    2.0958    0.0000 C   0  0  0  0  0  0  0  0  0  0  0  0
    1.0315    2.5651    0.0000 C   0  0  0  0  0  0  0  0  0  0  0  0
    1.0376    4.0651    0.0000 C   0  0  0  0  0  0  0  0  0  0  0  0
    2.4660    4.5229    0.0000 C   0  0  0  0  0  0  0  0  0  0  0  0
    3.3428    3.3058    0.0000 C   0  0  0  0  0  0  0  0  0  0  0  0
  1  2  1  0
  2  3  1  0
  3  4  2  0
  4  5  1  0
  5  6  2  0
  6  7  1  0
  7  8  1  0
  8  9  3  0
  7 10  1  0
 10 11  1  0
 11 12  1  0
 12 13  2  0
 12 14  1  0
 14 15  1  0
  6 16  1  0
 16 17  2  0
 17 18  1  0
 18 19  1  0
 19 20  1  0
 20 21  1  0
 21 22  1  0
 22 23  1  0
 17  3  1  0
 23 19  1  0
 15  7  1  0
M  END
> <Identifier>
1-[3-(Cyclopentyloxy)-4-methoxy-phenyl]-4-oxocyclohexane carbonitrile

> <SkinReaction>
0

$$$$

     RDKit          2D

 18 18  0  0  0  0  0  0  0  0999 V2000
    5.2425   -0.5354    0.0000 C   0  0  0  0  0  0  0  0  0  0  0  0
    3.8268   -0.0398    0.0000 N   0  0  0  0  0  0  0  0  0  0  0  0
    2.6897   -1.0180    0.0000 C   0  0  0  0  0  0  0  0  0  0  0  0
    2.9684   -2.4919    0.0000 C   0  0  0  0  0  0  0  0  0  0  0  0
    1.2739   -0.5224    0.0000 C   0  0  0  0  0  0  0  0  0  0  0  0
    0.1368   -1.5007    0.0000 C   0  0  0  0  0  0  0  0  0  0  0  0
   -1.2789   -1.0051    0.0000 C   0  0  0  0  0  0  0  0  0  0  0  0
   -2.4160   -1.9834    0.0000 C   0  0  0  0  0  0  0  0  0  0  0  0
   -3.5531   -2.9617    0.0000 F   0  0  0  0  0  0  0  0  0  0  0  0
   -3.3943   -0.8463    0.0000 F   0  0  0  0  0  0  0  0  0  0  0  0
   -1.4377   -3.1205    0.0000 F   0  0  0  0  0  0  0  0  0  0  0  0
   -1.5576    0.4688    0.0000 C   0  0  0  0  0  0  0  0  0  0  0  0
   -0.4205    1.4471    0.0000 C   0  0  0  0  0  0  0  0  0  0  0  0
   -0.6992    2.9210    0.0000 C   0  0  0  0  0  0  0  0  0  0  0  0
   -0.9778    4.3948    0.0000 F   0  0  0  0  0  0  0  0  0  0  0  0
    0.7747    3.1996    0.0000 F   0  0  0  0  0  0  0  0  0  0  0  0
   -2.1731    2.6423    0.0000 F   0  0  0  0  0  0  0  0  0  0  0  0
    0.9953    0.9515    0.0000 C   0  0  0  0  0  0  0  0  0  0  0  0
  1  2  1  0
  2  3  1  0
  3  4  1  0
  3  5  1  0
  5  6  2  0
  6  7  1  0
  7  8  1  0
  8  9  1  0
  8 10  1  0
  8 11  1  0
  7 12  2  0
 12 13  1  0
 13 14  1  0
 14 15  1  0
 14 16  1  0
 14 17  1  0
 13 18  2  0
 18  5  1  0
M  END
> <Identifier>
1-[3,5-Bis(trifluoromethyl)phenyl]-N-methylethanamine

> <SkinReaction>
0

$$$$

     RDKit          2D

 16 17  0  0  0  0  0  0  0  0999 V2000
   -3.0037    2.6519    0.0000 C   0  0  0  0  0  0  0  0  0  0  0  0
   -3.6617    1.3039    0.0000 C   0  0  0  0  0  0  0  0  0  0  0  0
   -5.1581    1.1998    0.0000 O   0  0  0  0  0  0  0  0  0  0  0  0
   -2.8234    0.0601    0.0000 C   0  0  0  0  0  0  0  0  0  0  0  0
   -3.3369   -1.3493    0.0000 C   0  0  0  0  0  0  0  0  0  0  0  0
   -2.1552   -2.2732    0.0000 C   0  0  0  0  0  0  0  0  0  0  0  0
   -0.9113   -1.4348    0.0000 C   0  0  0  0  0  0  0  0  0  0  0  0
    0.4980   -1.9483    0.0000 C   0  0  0  0  0  0  0  0  0  0  0  0
    1.6474   -0.9845    0.0000 C   0  0  0  0  0  0  0  0  0  0  0  0
    3.0568   -1.4980    0.0000 C   0  0  0  0  0  0  0  0  0  0  0  0
    4.2062   -0.5342    0.0000 C   0  0  0  0  0  0  0  0  0  0  0  0
    3.9462    0.9431    0.0000 C   0  0  0  0  0  0  0  0  0  0  0  0
    5.0956    1.9069    0.0000 F   0  0  0  0  0  0  0  0  0  0  0  0
    2.5368    1.4566    0.0000 C   0  0  0  0  0  0  0  0  0  0  0  0
    1.3875    0.4928    0.0000 C   0  0  0  0  0  0  0  0  0  0  0  0
   -1.3243    0.0072    0.0000 O   0  0  0  0  0  0  0  0  0  0  0  0
  1  2  1  0
  2  3  2  0
  2  4  1  0
  4  5  2  0
  5  6  1  0
  6  7  2  0
  7  8  1  0
  8  9  1  0
  9 10  2  0
 10 11  1  0
 11 12  2  0
 12 13  1  0
 12 14  1  0
 14 15  2  0
  7 16  1  0
 16  4  1  0
 15  9  1  0
M  END
> <Identifier>
1-[5-[(4-Fluorophenyl)methyl]-2-furanyl]ethanone

> <SkinReaction>
0

$$$$

     RDKit          2D

 10 10  0  0  0  0  0  0  0  0999 V2000
   -3.7977    0.6707    0.0000 C   0  0  0  0  0  0  0  0  0  0  0  0
   -2.3110    0.8699    0.0000 C   0  0  0  0  0  0  0  0  0  0  0  0
   -1.3951   -0.3180    0.0000 C   0  0  0  0  0  0  0  0  0  0  0  0
   -1.9660   -1.7051    0.0000 N   0  0  0  0  0  0  0  0  0  0  0  0
    0.0916   -0.1188    0.0000 C   0  0  0  0  0  0  0  0  0  0  0  0
    0.6624    1.2683    0.0000 C   0  0  0  0  0  0  0  0  0  0  0  0
    2.1491    1.4676    0.0000 C   0  0  0  0  0  0  0  0  0  0  0  0
    3.0650    0.2796    0.0000 C   0  0  0  0  0  0  0  0  0  0  0  0
    2.4942   -1.1075    0.0000 C   0  0  0  0  0  0  0  0  0  0  0  0
    1.0075   -1.3067    0.0000 C   0  0  0  0  0  0  0  0  0  0  0  0
  1  2  1  0
  2  3  1  0
  3  4  1  0
  3  5  1  0
  5  6  2  0
  6  7  1  0
  7  8  2  0
  8  9  1  0
  9 10  2  0
 10  5  1  0
M  END
> <Identifier>
1-Phenylpropylamine

> <SkinReaction>
0

$$$$

     RDKit          2D

 28 31  0  0  0  0  0  0  0  0999 V2000
   -7.3384   -1.8204    0.0000 C   0  0  0  0  0  0  0  0  0  0  0  0
   -5.8552   -1.5965    0.0000 C   0  0  0  0  0  0  0  0  0  0  0  0
   -4.9197   -2.7691    0.0000 O   0  0  0  0  0  0  0  0  0  0  0  0
   -3.4365   -2.5452    0.0000 C   0  0  0  0  0  0  0  0  0  0  0  0
   -2.8888   -1.1487    0.0000 C   0  0  0  0  0  0  0  0  0  0  0  0
   -1.4056   -0.9249    0.0000 C   0  0  0  0  0  0  0  0  0  0  0  0
   -0.4701   -2.0974    0.0000 C   0  0  0  0  0  0  0  0  0  0  0  0
    1.0131   -1.8735    0.0000 C   0  0  0  0  0  0  0  0  0  0  0  0
    2.0660   -2.9418    0.0000 N   0  0  0  0  0  0  0  0  0  0  0  0
    3.4074   -2.2706    0.0000 N   0  0  0  0  0  0  0  0  0  0  0  0
    4.8039   -2.8183    0.0000 N   0  0  0  0  0  0  0  0  0  0  0  0
    5.9764   -1.8828    0.0000 C   0  0  0  0  0  0  0  0  0  0  0  0
    5.7525   -0.3996    0.0000 C   0  0  0  0  0  0  0  0  0  0  0  0
    4.3561    0.1481    0.0000 C   0  0  0  0  0  0  0  0  0  0  0  0
    3.1835   -0.7874    0.0000 C   0  0  0  0  0  0  0  0  0  0  0  0
    1.7037   -0.5420    0.0000 C   0  0  0  0  0  0  0  0  0  0  0  0
    1.0325    0.7994    0.0000 C   0  0  0  0  0  0  0  0  0  0  0  0
    1.8585    2.0515    0.0000 C   0  0  0  0  0  0  0  0  0  0  0  0
    1.1873    3.3929    0.0000 C   0  0  0  0  0  0  0  0  0  0  0  0
   -0.3101    3.4823    0.0000 C   0  0  0  0  0  0  0  0  0  0  0  0
   -0.9813    4.8237    0.0000 S   0  0  0  0  0  0  0  0  0  0  0  0
   -1.6526    6.1651    0.0000 C   0  0  0  0  0  0  0  0  0  0  0  0
   -2.3227    4.1524    0.0000 O   0  0  0  0  0  0  0  0  0  0  0  0
    0.3601    5.4950    0.0000 O   0  0  0  0  0  0  0  0  0  0  0  0
   -1.1361    2.2302    0.0000 C   0  0  0  0  0  0  0  0  0  0  0  0
   -0.4649    0.8888    0.0000 C   0  0  0  0  0  0  0  0  0  0  0  0
   -1.0178   -3.4938    0.0000 C   0  0  0  0  0  0  0  0  0  0  0  0
   -2.5010   -3.7177    0.0000 C   0  0  0  0  0  0  0  0  0  0  0  0
  1  2  1  0
  2  3  1  0
  3  4  1  0
  4  5  2  0
  5  6  1  0
  6  7  2  0
  7  8  1  0
  8  9  2  0
  9 10  1  0
 10 11  1  0
 11 12  2  0
 12 13  1  0
 13 14  2  0
 14 15  1  0
 15 16  2  0
 16 17  1  0
 17 18  2  0
 18 19  1  0
 19 20  2  0
 20 21  1  0
 21 22  1  0
 21 23  2  0
 21 24  2  0
 20 25  1  0
 25 26  2  0
  7 27  1  0
 27 28  2  0
 28  4  1  0
 16  8  1  0
 26 17  1  0
 15 10  1  0
M  END
> <Identifier>
2-(4-Ethoxyphenyl)-3-[4-(methylsulfonyl)phenyl]pyrazolo[1,5-b]pyridazine

> <SkinReaction>
0

$$$$

     RDKit          2D

 17 18  0  0  0  0  0  0  0  0999 V2000
   -6.4333   -0.2091    0.0000 C   0  0  0  0  0  0  0  0  0  0  0  0
   -5.0161    0.2824    0.0000 C   0  0  0  0  0  0  0  0  0  0  0  0
   -4.7331    1.7555    0.0000 O   0  0  0  0  0  0  0  0  0  0  0  0
   -3.8819   -0.6992    0.0000 C   0  0  0  0  0  0  0  0  0  0  0  0
   -2.4647   -0.2077    0.0000 C   0  0  0  0  0  0  0  0  0  0  0  0
   -1.3304   -1.1893    0.0000 C   0  0  0  0  0  0  0  0  0  0  0  0
    0.0868   -0.6978    0.0000 N   0  0  0  0  0  0  0  0  0  0  0  0
    1.3174   -1.5555    0.0000 C   0  0  0  0  0  0  0  0  0  0  0  0
    1.3469   -3.0552    0.0000 O   0  0  0  0  0  0  0  0  0  0  0  0
    2.5133   -0.6501    0.0000 C   0  0  0  0  0  0  0  0  0  0  0  0
    3.9864   -0.9331    0.0000 C   0  0  0  0  0  0  0  0  0  0  0  0
    4.9680    0.2012    0.0000 C   0  0  0  0  0  0  0  0  0  0  0  0
    4.4765    1.6184    0.0000 C   0  0  0  0  0  0  0  0  0  0  0  0
    3.0034    1.9013    0.0000 C   0  0  0  0  0  0  0  0  0  0  0  0
    2.0219    0.7671    0.0000 C   0  0  0  0  0  0  0  0  0  0  0  0
    0.5221    0.7376    0.0000 C   0  0  0  0  0  0  0  0  0  0  0  0
   -0.3832    1.9336    0.0000 O   0  0  0  0  0  0  0  0  0  0  0  0
  1  2  1  0
  2  3  2  0
  2  4  1  0
  4  5  1  0
  5  6  1  0
  6  7  1  0
  7  8  1  0
  8  9  2  0
  8 10  1  0
 10 11  2  0
 11 12  1  0
 12 13  2  0
 13 14  1  0
 14 15  2  0
 15 16  1  0
 16 17  2  0
 16  7  1  0
 15 10  1  0
M  END
> <Identifier>
2-(4-Oxopentyl)-1H-isoindole-1,3(2H)-dione

> <SkinReaction>
0

$$$$

     RDKit          2D

 24 25  0  0  0  0  0  0  0  0999 V2000
    0.4544    1.8688    0.0000 C   0  0  0  0  0  0  0  0  0  0  0  0
    1.8521    1.3242    0.0000 C   0  0  0  0  0  0  0  0  0  0  0  0
    3.2497    0.7796    0.0000 C   0  0  0  0  0  0  0  0  0  0  0  0
    2.3967    2.7218    0.0000 C   0  0  0  0  0  0  0  0  0  0  0  0
    1.3075   -0.0735    0.0000 N   0  0  0  0  0  0  0  0  0  0  0  0
    2.2455   -1.2439    0.0000 C   0  0  0  0  0  0  0  0  0  0  0  0
    3.7282   -1.0167    0.0000 C   0  0  0  0  0  0  0  0  0  0  0  0
    4.6663   -2.1872    0.0000 C   0  0  0  0  0  0  0  0  0  0  0  0
    6.1490   -1.9600    0.0000 C   0  0  0  0  0  0  0  0  0  0  0  0
    6.6936   -0.5624    0.0000 C   0  0  0  0  0  0  0  0  0  0  0  0
    5.7555    0.6081    0.0000 C   0  0  0  0  0  0  0  0  0  0  0  0
    4.2729    0.3809    0.0000 C   0  0  0  0  0  0  0  0  0  0  0  0
   -0.1752   -0.3006    0.0000 C   0  0  0  0  0  0  0  0  0  0  0  0
   -1.1133    0.8698    0.0000 C   0  0  0  0  0  0  0  0  0  0  0  0
   -0.5687    2.2675    0.0000 O   0  0  0  0  0  0  0  0  0  0  0  0
   -2.5960    0.6426    0.0000 C   0  0  0  0  0  0  0  0  0  0  0  0
   -3.5341    1.8131    0.0000 C   0  0  0  0  0  0  0  0  0  0  0  0
   -5.0168    1.5859    0.0000 C   0  0  0  0  0  0  0  0  0  0  0  0
   -5.5614    0.1883    0.0000 C   0  0  0  0  0  0  0  0  0  0  0  0
   -7.0441   -0.0389    0.0000 O   0  0  0  0  0  0  0  0  0  0  0  0
   -4.6233   -0.9822    0.0000 C   0  0  0  0  0  0  0  0  0  0  0  0
   -5.1679   -2.3798    0.0000 C   0  0  0  0  0  0  0  0  0  0  0  0
   -4.2298   -3.5503    0.0000 O   0  0  0  0  0  0  0  0  0  0  0  0
   -3.1406   -0.7550    0.0000 C   0  0  0  0  0  0  0  0  0  0  0  0
  1  2  1  0
  2  3  1  0
  2  4  1  0
  2  5  1  0
  5  6  1  0
  6  7  1  0
  7  8  2  0
  8  9  1  0
  9 10  2  0
 10 11  1  0
 11 12  2  0
  5 13  1  0
 13 14  1  0
 14 15  1  0
 14 16  1  0
 16 17  2  0
 17 18  1  0
 18 19  2  0
 19 20  1  0
 19 21  1  0
 21 22  1  0
 22 23  1  0
 21 24  2  0
 12  7  1  0
 24 16  1  0
M  END
> <Identifier>
2-(Benzyl)tert- butyl)amino)-1-(alpha,4-dihydroxy-m-tolyl)ethane

> <SkinReaction>
0

$$$$

     RDKit          2D

 48 53  0  0  0  0  0  0  0  0999 V2000
   12.5435   -3.0153    0.0000 C   0  0  0  0  0  0  0  0  0  0  0  0
   11.8779   -1.6710    0.0000 C   0  0  0  0  0  0  0  0  0  0  0  0
   10.3992   -1.4194    0.0000 N   0  0  0  0  0  0  0  0  0  0  0  0
   10.1816    0.0648    0.0000 C   0  0  0  0  0  0  0  0  0  0  0  0
    8.8530    0.7611    0.0000 C   0  0  0  0  0  0  0  0  0  0  0  0
    7.5857   -0.0414    0.0000 O   0  0  0  0  0  0  0  0  0  0  0  0
    6.2571    0.6549    0.0000 C   0  0  0  0  0  0  0  0  0  0  0  0
    4.9898   -0.1475    0.0000 C   0  0  0  0  0  0  0  0  0  0  0  0
    3.6612    0.5488    0.0000 C   0  0  0  0  0  0  0  0  0  0  0  0
    3.5999    2.0475    0.0000 C   0  0  0  0  0  0  0  0  0  0  0  0
    2.2713    2.7438    0.0000 C   0  0  0  0  0  0  0  0  0  0  0  0
    1.0040    1.9414    0.0000 C   0  0  0  0  0  0  0  0  0  0  0  0
    1.0653    0.4427    0.0000 N   0  0  0  0  0  0  0  0  0  0  0  0
   -0.2021   -0.3598    0.0000 C   0  0  0  0  0  0  0  0  0  0  0  0
   -1.5307    0.3365    0.0000 O   0  0  0  0  0  0  0  0  0  0  0  0
   -0.1408   -1.8585    0.0000 O   0  0  0  0  0  0  0  0  0  0  0  0
   -1.4081   -2.6610    0.0000 C   0  0  0  0  0  0  0  0  0  0  0  0
   -2.8022   -2.1074    0.0000 C   0  0  0  0  0  0  0  0  0  0  0  0
   -3.7595   -3.2622    0.0000 O   0  0  0  0  0  0  0  0  0  0  0  0
   -2.9571   -4.5295    0.0000 C   0  0  0  0  0  0  0  0  0  0  0  0
   -3.0528   -6.0264    0.0000 O   0  0  0  0  0  0  0  0  0  0  0  0
   -1.6587   -6.5800    0.0000 C   0  0  0  0  0  0  0  0  0  0  0  0
   -0.7014   -5.4252    0.0000 C   0  0  0  0  0  0  0  0  0  0  0  0
   -1.5038   -4.1579    0.0000 C   0  0  0  0  0  0  0  0  0  0  0  0
   -0.3246    2.6377    0.0000 C   0  0  0  0  0  0  0  0  0  0  0  0
   -0.3859    4.1365    0.0000 O   0  0  0  0  0  0  0  0  0  0  0  0
   -1.5919    1.8353    0.0000 C   0  0  0  0  0  0  0  0  0  0  0  0
   -2.9205    2.5316    0.0000 N   0  0  0  0  0  0  0  0  0  0  0  0
   -2.9818    4.0303    0.0000 C   0  0  0  0  0  0  0  0  0  0  0  0
   -4.3104    4.7266    0.0000 C   0  0  0  0  0  0  0  0  0  0  0  0
   -4.3717    6.2254    0.0000 C   0  0  0  0  0  0  0  0  0  0  0  0
   -5.5777    3.9242    0.0000 C   0  0  0  0  0  0  0  0  0  0  0  0
   -4.1878    1.7291    0.0000 S   0  0  0  0  0  0  0  0  0  0  0  0
   -3.3854    0.4618    0.0000 O   0  0  0  0  0  0  0  0  0  0  0  0
   -4.9903    2.9964    0.0000 O   0  0  0  0  0  0  0  0  0  0  0  0
   -5.4552    0.9267    0.0000 C   0  0  0  0  0  0  0  0  0  0  0  0
   -6.7837    1.6230    0.0000 C   0  0  0  0  0  0  0  0  0  0  0  0
   -8.0511    0.8205    0.0000 C   0  0  0  0  0  0  0  0  0  0  0  0
   -7.9898   -0.6782    0.0000 C   0  0  0  0  0  0  0  0  0  0  0  0
   -6.6612   -1.3745    0.0000 C   0  0  0  0  0  0  0  0  0  0  0  0
   -5.3939   -0.5721    0.0000 C   0  0  0  0  0  0  0  0  0  0  0  0
   -6.9129   -2.8533    0.0000 O   0  0  0  0  0  0  0  0  0  0  0  0
   -8.3970   -3.0709    0.0000 C   0  0  0  0  0  0  0  0  0  0  0  0
   -9.0626   -1.7266    0.0000 O   0  0  0  0  0  0  0  0  0  0  0  0
    4.8672    2.8500    0.0000 C   0  0  0  0  0  0  0  0  0  0  0  0
    6.1958    2.1537    0.0000 C   0  0  0  0  0  0  0  0  0  0  0  0
   11.5258    0.7303    0.0000 C   0  0  0  0  0  0  0  0  0  0  0  0
   12.5742   -0.3424    0.0000 S   0  0  0  0  0  0  0  0  0  0  0  0
  1  2  1  0
  2  3  2  0
  3  4  1  0
  4  5  1  0
  5  6  1  0
  6  7  1  0
  7  8  2  0
  8  9  1  0
  9 10  2  0
 10 11  1  0
 11 12  1  0
 12 13  1  0
 13 14  1  0
 14 15  2  0
 14 16  1  0
 16 17  1  0
 17 18  1  0
 18 19  1  0
 19 20  1  0
 20 21  1  0
 21 22  1  0
 22 23  1  0
 23 24  1  0
 12 25  1  0
 25 26  1  0
 25 27  1  0
 27 28  1  0
 28 29  1  0
 29 30  1  0
 30 31  1  0
 30 32  1  0
 28 33  1  0
 33 34  2  0
 33 35  2  0
 33 36  1  0
 36 37  2  0
 37 38  1  0
 38 39  2  0
 39 40  1  0
 40 41  2  0
 40 42  1  0
 42 43  1  0
 43 44  1  0
 10 45  1  0
 45 46  2  0
  4 47  2  0
 47 48  1  0
 48  2  1  0
 46  7  1  0
 24 17  1  0
 41 36  1  0
 24 20  1  0
 44 39  1  0
M  END
> <Identifier>
2,3,3a,4,5,6a-Hexahydrofuro[5,4-b]furan-3-yl N-[3-(1,3-benzodioxol-5-ylsulfonyl-isobutyl-amino)-2-hydroxy-1-[[4-[(2-methylthiazol-4-yl)methoxy]phenyl]methyl]propyl]carbamate

> <SkinReaction>
0

$$$$

     RDKit          2D

 41 45  0  0  0  0  0  0  0  0999 V2000
   -2.3370    6.5433    0.0000 C   0  0  0  0  0  0  0  0  0  0  0  0
   -1.2155    5.5471    0.0000 C   0  0  0  0  0  0  0  0  0  0  0  0
    0.2079    6.0202    0.0000 C   0  0  0  0  0  0  0  0  0  0  0  0
   -1.5175    4.0778    0.0000 N   0  0  0  0  0  0  0  0  0  0  0  0
   -0.3960    3.0816    0.0000 C   0  0  0  0  0  0  0  0  0  0  0  0
    1.0274    3.5548    0.0000 O   0  0  0  0  0  0  0  0  0  0  0  0
   -0.6980    1.6124    0.0000 C   0  0  0  0  0  0  0  0  0  0  0  0
    0.4235    0.6162    0.0000 N   0  0  0  0  0  0  0  0  0  0  0  0
    0.0125   -0.8264    0.0000 C   0  0  0  0  0  0  0  0  0  0  0  0
   -1.4655   -1.0821    0.0000 O   0  0  0  0  0  0  0  0  0  0  0  0
    0.8842   -2.0472    0.0000 C   0  0  0  0  0  0  0  0  0  0  0  0
    0.1626   -3.3622    0.0000 N   0  0  0  0  0  0  0  0  0  0  0  0
   -1.3371   -3.3947    0.0000 O   0  0  0  0  0  0  0  0  0  0  0  0
   -2.0587   -4.7097    0.0000 C   0  0  0  0  0  0  0  0  0  0  0  0
   -3.5584   -4.7422    0.0000 C   0  0  0  0  0  0  0  0  0  0  0  0
   -4.3364   -3.4598    0.0000 C   0  0  0  0  0  0  0  0  0  0  0  0
   -5.8360   -3.4923    0.0000 C   0  0  0  0  0  0  0  0  0  0  0  0
   -6.5577   -4.8073    0.0000 C   0  0  0  0  0  0  0  0  0  0  0  0
   -5.7797   -6.0898    0.0000 C   0  0  0  0  0  0  0  0  0  0  0  0
   -4.2800   -6.0572    0.0000 C   0  0  0  0  0  0  0  0  0  0  0  0
    2.3821   -2.1268    0.0000 C   0  0  0  0  0  0  0  0  0  0  0  0
    2.9603   -3.5109    0.0000 O   0  0  0  0  0  0  0  0  0  0  0  0
    3.3782   -1.0053    0.0000 N   0  0  0  0  0  0  0  0  0  0  0  0
    4.8209   -1.4162    0.0000 C   0  0  0  0  0  0  0  0  0  0  0  0
    5.1863   -2.8711    0.0000 C   0  0  0  0  0  0  0  0  0  0  0  0
    6.6289   -3.2820    0.0000 C   0  0  0  0  0  0  0  0  0  0  0  0
    7.7061   -2.2381    0.0000 C   0  0  0  0  0  0  0  0  0  0  0  0
    7.3407   -0.7833    0.0000 C   0  0  0  0  0  0  0  0  0  0  0  0
    5.8980   -0.3724    0.0000 C   0  0  0  0  0  0  0  0  0  0  0  0
    3.1226    0.4727    0.0000 C   0  0  0  0  0  0  0  0  0  0  0  0
    4.4050    1.2507    0.0000 C   0  0  0  0  0  0  0  0  0  0  0  0
    4.3725    2.7504    0.0000 C   0  0  0  0  0  0  0  0  0  0  0  0
    3.0575    3.4720    0.0000 C   0  0  0  0  0  0  0  0  0  0  0  0
    1.7750    2.6940    0.0000 C   0  0  0  0  0  0  0  0  0  0  0  0
    1.8075    1.1944    0.0000 C   0  0  0  0  0  0  0  0  0  0  0  0
   -2.9409    3.6047    0.0000 C   0  0  0  0  0  0  0  0  0  0  0  0
   -4.0624    4.6008    0.0000 C   0  0  0  0  0  0  0  0  0  0  0  0
   -5.4858    4.1277    0.0000 C   0  0  0  0  0  0  0  0  0  0  0  0
   -5.7878    2.6584    0.0000 C   0  0  0  0  0  0  0  0  0  0  0  0
   -4.6663    1.6623    0.0000 C   0  0  0  0  0  0  0  0  0  0  0  0
   -3.2429    2.1354    0.0000 C   0  0  0  0  0  0  0  0  0  0  0  0
  1  2  1  0
  2  3  1  0
  2  4  1  0
  4  5  1  0
  5  6  2  0
  5  7  1  0
  7  8  1  0
  8  9  1  0
  9 10  2  0
  9 11  1  0
 11 12  2  3
 12 13  1  0
 13 14  1  0
 14 15  1  0
 15 16  2  0
 16 17  1  0
 17 18  2  0
 18 19  1  0
 19 20  2  0
 11 21  1  0
 21 22  2  0
 21 23  1  0
 23 24  1  0
 24 25  2  0
 25 26  1  0
 26 27  2  0
 27 28  1  0
 28 29  2  0
 23 30  1  0
 30 31  2  0
 31 32  1  0
 32 33  2  0
 33 34  1  0
 34 35  2  0
  4 36  1  0
 36 37  2  0
 37 38  1  0
 38 39  2  0
 39 40  1  0
 40 41  2  0
 35  8  1  0
 41 36  1  0
 20 15  1  0
 29 24  1  0
 35 30  1  0
M  END
> <Identifier>
2,3,4,5-Tetrahydro-N-(1-methylethyl)-2,4-dioxo-N,5-diphenyl-3-[(phenylmethoxy)-imino]-1H-1,5-benzodiazepine-1-acetamide

> <SkinReaction>
0

$$$$

     RDKit          2D

 12 13  0  0  0  0  0  0  0  0999 V2000
   -2.5208   -1.9906    0.0000 C   0  0  0  0  0  0  0  0  0  0  0  0
   -1.7234   -0.7200    0.0000 C   0  0  0  0  0  0  0  0  0  0  0  0
   -0.2269   -0.6183    0.0000 C   0  0  0  0  0  0  0  0  0  0  0  0
    0.8501   -1.6624    0.0000 C   0  0  0  0  0  0  0  0  0  0  0  0
    2.2928   -1.2518    0.0000 C   0  0  0  0  0  0  0  0  0  0  0  0
    2.6585    0.2030    0.0000 C   0  0  0  0  0  0  0  0  0  0  0  0
    4.1012    0.6136    0.0000 N   0  0  0  0  0  0  0  0  0  0  0  0
    1.5815    1.2470    0.0000 C   0  0  0  0  0  0  0  0  0  0  0  0
    0.1388    0.8364    0.0000 C   0  0  0  0  0  0  0  0  0  0  0  0
   -1.1317    1.6338    0.0000 N   0  0  0  0  0  0  0  0  0  0  0  0
   -2.2826    0.6718    0.0000 N   0  0  0  0  0  0  0  0  0  0  0  0
   -3.7374    1.0376    0.0000 C   0  0  0  0  0  0  0  0  0  0  0  0
  1  2  1  0
  2  3  2  0
  3  4  1  0
  4  5  2  0
  5  6  1  0
  6  7  1  0
  6  8  2  0
  8  9  1  0
  9 10  2  0
 10 11  1  0
 11 12  1  0
 11  2  1  0
  9  3  1  0
M  END
> <Identifier>
2,3-Dimethyl-2H-indazol-6-amine

> <SkinReaction>
0

$$$$

     RDKit          2D

 27 29  0  0  0  0  0  0  0  0999 V2000
    6.6023   -3.2097    0.0000 C   0  0  0  0  0  0  0  0  0  0  0  0
    6.3491   -1.7312    0.0000 O   0  0  0  0  0  0  0  0  0  0  0  0
    4.9422   -1.2112    0.0000 C   0  0  0  0  0  0  0  0  0  0  0  0
    3.7883   -2.1696    0.0000 C   0  0  0  0  0  0  0  0  0  0  0  0
    2.3814   -1.6496    0.0000 C   0  0  0  0  0  0  0  0  0  0  0  0
    1.2275   -2.6080    0.0000 C   0  0  0  0  0  0  0  0  0  0  0  0
    2.1282   -0.1711    0.0000 C   0  0  0  0  0  0  0  0  0  0  0  0
    0.7213    0.3489    0.0000 C   0  0  0  0  0  0  0  0  0  0  0  0
   -0.4326   -0.6095    0.0000 O   0  0  0  0  0  0  0  0  0  0  0  0
   -1.8396   -0.0895    0.0000 C   0  0  0  0  0  0  0  0  0  0  0  0
   -2.0927    1.3890    0.0000 C   0  0  0  0  0  0  0  0  0  0  0  0
   -3.4997    1.9090    0.0000 C   0  0  0  0  0  0  0  0  0  0  0  0
   -4.6535    0.9506    0.0000 C   0  0  0  0  0  0  0  0  0  0  0  0
   -4.4004   -0.5279    0.0000 C   0  0  0  0  0  0  0  0  0  0  0  0
   -5.5542   -1.4864    0.0000 C   0  0  0  0  0  0  0  0  0  0  0  0
   -6.7081   -2.4448    0.0000 F   0  0  0  0  0  0  0  0  0  0  0  0
   -6.5127   -0.3325    0.0000 F   0  0  0  0  0  0  0  0  0  0  0  0
   -4.5958   -2.6402    0.0000 F   0  0  0  0  0  0  0  0  0  0  0  0
   -2.9934   -1.0479    0.0000 C   0  0  0  0  0  0  0  0  0  0  0  0
    0.4681    1.8274    0.0000 C   0  0  0  0  0  0  0  0  0  0  0  0
   -0.9388    2.3475    0.0000 O   0  0  0  0  0  0  0  0  0  0  0  0
   -1.1920    3.8259    0.0000 C   0  0  0  0  0  0  0  0  0  0  0  0
    1.6220    2.7859    0.0000 C   0  0  0  0  0  0  0  0  0  0  0  0
    3.0290    2.2659    0.0000 C   0  0  0  0  0  0  0  0  0  0  0  0
    4.1828    3.2243    0.0000 N   0  0  0  0  0  0  0  0  0  0  0  0
    3.2821    0.7874    0.0000 C   0  0  0  0  0  0  0  0  0  0  0  0
    4.6890    0.2673    0.0000 N   0  0  0  0  0  0  0  0  0  0  0  0
  1  2  1  0
  2  3  1  0
  3  4  2  0
  4  5  1  0
  5  6  1  0
  5  7  2  0
  7  8  1  0
  8  9  1  0
  9 10  1  0
 10 11  2  0
 11 12  1  0
 12 13  2  0
 13 14  1  0
 14 15  1  0
 15 16  1  0
 15 17  1  0
 15 18  1  0
 14 19  2  0
  8 20  2  0
 20 21  1  0
 21 22  1  0
 20 23  1  0
 23 24  2  0
 24 25  1  0
 24 26  1  0
 26 27  2  0
 27  3  1  0
 26  7  1  0
 19 10  1  0
M  END
> <Identifier>
2,6-Dimethoxy-4-methyl-5-[3-(trifluoromethyl)phenoxy]-8-quinolinamine

> <SkinReaction>
0

$$$$

     RDKit          2D

 16 16  0  0  0  0  0  0  0  0999 V2000
   -4.1023   -2.2912    0.0000 O   0  0  0  0  0  0  0  0  0  0  0  0
   -3.9773   -0.7964    0.0000 C   0  0  0  0  0  0  0  0  0  0  0  0
   -5.2093    0.0592    0.0000 O   0  0  0  0  0  0  0  0  0  0  0  0
   -2.6203   -0.1572    0.0000 C   0  0  0  0  0  0  0  0  0  0  0  0
   -1.3883   -1.0129    0.0000 N   0  0  0  0  0  0  0  0  0  0  0  0
   -0.0312   -0.3737    0.0000 O   0  0  0  0  0  0  0  0  0  0  0  0
    1.2008   -1.2293    0.0000 C   0  0  0  0  0  0  0  0  0  0  0  0
    2.5578   -0.5902    0.0000 C   0  0  0  0  0  0  0  0  0  0  0  0
    2.6828    0.9046    0.0000 C   0  0  0  0  0  0  0  0  0  0  0  0
    4.0398    1.5438    0.0000 C   0  0  0  0  0  0  0  0  0  0  0  0
    5.2718    0.6882    0.0000 C   0  0  0  0  0  0  0  0  0  0  0  0
    5.1468   -0.8066    0.0000 C   0  0  0  0  0  0  0  0  0  0  0  0
    3.7898   -1.4458    0.0000 C   0  0  0  0  0  0  0  0  0  0  0  0
   -2.4953    1.3376    0.0000 C   0  0  0  0  0  0  0  0  0  0  0  0
   -1.1383    1.9767    0.0000 O   0  0  0  0  0  0  0  0  0  0  0  0
   -3.7273    2.1932    0.0000 O   0  0  0  0  0  0  0  0  0  0  0  0
  1  2  2  0
  2  3  1  0
  2  4  1  0
  4  5  2  0
  5  6  1  0
  6  7  1  0
  7  8  1  0
  8  9  2  0
  9 10  1  0
 10 11  2  0
 11 12  1  0
 12 13  2  0
  4 14  1  0
 14 15  2  0
 14 16  1  0
 13  8  1  0
M  END
> <Identifier>
2-[(Benzyloxy)-imino]malonic acid

> <SkinReaction>
0

$$$$

     RDKit          2D

 43 47  0  0  0  0  0  0  0  0999 V2000
   -6.1693   -6.7059    0.0000 C   0  0  0  0  0  0  0  0  0  0  0  0
   -4.7153   -6.3374    0.0000 O   0  0  0  0  0  0  0  0  0  0  0  0
   -4.3074   -4.8939    0.0000 C   0  0  0  0  0  0  0  0  0  0  0  0
   -5.3536   -3.8189    0.0000 C   0  0  0  0  0  0  0  0  0  0  0  0
   -4.9457   -2.3754    0.0000 C   0  0  0  0  0  0  0  0  0  0  0  0
   -5.9919   -1.3005    0.0000 C   0  0  0  0  0  0  0  0  0  0  0  0
   -3.4917   -2.0069    0.0000 C   0  0  0  0  0  0  0  0  0  0  0  0
   -3.0838   -0.5634    0.0000 C   0  0  0  0  0  0  0  0  0  0  0  0
   -4.1300    0.5115    0.0000 O   0  0  0  0  0  0  0  0  0  0  0  0
   -3.7221    1.9550    0.0000 C   0  0  0  0  0  0  0  0  0  0  0  0
   -2.2681    2.3235    0.0000 C   0  0  0  0  0  0  0  0  0  0  0  0
   -1.8602    3.7670    0.0000 C   0  0  0  0  0  0  0  0  0  0  0  0
   -2.9064    4.8420    0.0000 C   0  0  0  0  0  0  0  0  0  0  0  0
   -4.3604    4.4735    0.0000 C   0  0  0  0  0  0  0  0  0  0  0  0
   -5.4066    5.5484    0.0000 C   0  0  0  0  0  0  0  0  0  0  0  0
   -6.4528    6.6234    0.0000 F   0  0  0  0  0  0  0  0  0  0  0  0
   -4.3316    6.5946    0.0000 F   0  0  0  0  0  0  0  0  0  0  0  0
   -6.4816    4.5023    0.0000 F   0  0  0  0  0  0  0  0  0  0  0  0
   -4.7683    3.0300    0.0000 C   0  0  0  0  0  0  0  0  0  0  0  0
   -1.6298   -0.1949    0.0000 C   0  0  0  0  0  0  0  0  0  0  0  0
   -1.2220    1.2486    0.0000 O   0  0  0  0  0  0  0  0  0  0  0  0
    0.2321    1.6171    0.0000 C   0  0  0  0  0  0  0  0  0  0  0  0
   -0.5837   -1.2699    0.0000 C   0  0  0  0  0  0  0  0  0  0  0  0
   -0.9915   -2.7134    0.0000 C   0  0  0  0  0  0  0  0  0  0  0  0
    0.0546   -3.7883    0.0000 N   0  0  0  0  0  0  0  0  0  0  0  0
    1.5087   -3.4198    0.0000 C   0  0  0  0  0  0  0  0  0  0  0  0
    2.5548   -4.4948    0.0000 C   0  0  0  0  0  0  0  0  0  0  0  0
    1.9165   -1.9763    0.0000 C   0  0  0  0  0  0  0  0  0  0  0  0
    3.3706   -1.6078    0.0000 C   0  0  0  0  0  0  0  0  0  0  0  0
    3.7784   -0.1643    0.0000 C   0  0  0  0  0  0  0  0  0  0  0  0
    5.2324    0.2042    0.0000 N   0  0  0  0  0  0  0  0  0  0  0  0
    6.3852   -0.7555    0.0000 C   0  0  0  0  0  0  0  0  0  0  0  0
    6.2864   -2.2523    0.0000 O   0  0  0  0  0  0  0  0  0  0  0  0
    7.6542    0.0443    0.0000 C   0  0  0  0  0  0  0  0  0  0  0  0
    9.0977   -0.3636    0.0000 C   0  0  0  0  0  0  0  0  0  0  0  0
   10.1727    0.6826    0.0000 C   0  0  0  0  0  0  0  0  0  0  0  0
    9.8042    2.1366    0.0000 C   0  0  0  0  0  0  0  0  0  0  0  0
    8.3607    2.5445    0.0000 C   0  0  0  0  0  0  0  0  0  0  0  0
    7.2857    1.4983    0.0000 C   0  0  0  0  0  0  0  0  0  0  0  0
    5.7890    1.5971    0.0000 C   0  0  0  0  0  0  0  0  0  0  0  0
    4.9892    2.8661    0.0000 O   0  0  0  0  0  0  0  0  0  0  0  0
   -2.4456   -3.0819    0.0000 C   0  0  0  0  0  0  0  0  0  0  0  0
   -2.8534   -4.5254    0.0000 N   0  0  0  0  0  0  0  0  0  0  0  0
  1  2  1  0
  2  3  1  0
  3  4  2  0
  4  5  1  0
  5  6  1  0
  5  7  2  0
  7  8  1  0
  8  9  1  0
  9 10  1  0
 10 11  2  0
 11 12  1  0
 12 13  2  0
 13 14  1  0
 14 15  1  0
 15 16  1  0
 15 17  1  0
 15 18  1  0
 14 19  2  0
  8 20  2  0
 20 21  1  0
 21 22  1  0
 20 23  1  0
 23 24  2  0
 24 25  1  0
 25 26  1  0
 26 27  1  0
 26 28  1  0
 28 29  1  0
 29 30  1  0
 30 31  1  0
 31 32  1  0
 32 33  2  0
 32 34  1  0
 34 35  2  0
 35 36  1  0
 36 37  2  0
 37 38  1  0
 38 39  2  0
 39 40  1  0
 40 41  2  0
 24 42  1  0
 42 43  2  0
 43  3  1  0
 42  7  1  0
 19 10  1  0
 40 31  1  0
 39 34  1  0
M  END
> <Identifier>
2-[4-({2,6-Dimethoxy-4-methyl-5-[3-(trifluoromethyl)phenoxy]-8-quinolinyl}amino)pentyl]-1H-isoindole-1,3(2H)-dione

> <SkinReaction>
0

$$$$

     RDKit          2D

 10 10  0  0  0  0  0  0  0  0999 V2000
    2.4688   -1.6844    0.0000 C   0  0  0  0  0  0  0  0  0  0  0  0
    1.7848   -0.3495    0.0000 C   0  0  0  0  0  0  0  0  0  0  0  0
    2.5988    0.9104    0.0000 O   0  0  0  0  0  0  0  0  0  0  0  0
    0.2866   -0.2745    0.0000 C   0  0  0  0  0  0  0  0  0  0  0  0
   -0.5274   -1.5344    0.0000 C   0  0  0  0  0  0  0  0  0  0  0  0
   -2.0255   -1.4594    0.0000 C   0  0  0  0  0  0  0  0  0  0  0  0
   -2.7096   -0.1244    0.0000 C   0  0  0  0  0  0  0  0  0  0  0  0
   -1.8956    1.1355    0.0000 C   0  0  0  0  0  0  0  0  0  0  0  0
   -0.3975    1.0604    0.0000 C   0  0  0  0  0  0  0  0  0  0  0  0
    0.4166    2.3203    0.0000 O   0  0  0  0  0  0  0  0  0  0  0  0
  1  2  1  0
  2  3  2  0
  2  4  1  0
  4  5  1  0
  5  6  1  0
  6  7  1  0
  7  8  1  0
  8  9  1  0
  9 10  2  0
  9  4  1  0
M  END
> <Identifier>
2-Acetylcyclohexanone

> <SkinReaction>
0

$$$$

     RDKit          2D

  7  6  0  0  0  0  0  0  0  0999 V2000
   -2.3250    0.5368    0.0000 C   0  0  0  0  0  0  0  0  0  0  0  0
   -0.9337   -0.0239    0.0000 S   0  0  0  0  0  0  0  0  0  0  0  0
   -1.4944   -1.4151    0.0000 O   0  0  0  0  0  0  0  0  0  0  0  0
   -0.3731    1.3674    0.0000 O   0  0  0  0  0  0  0  0  0  0  0  0
    0.4575   -0.5845    0.0000 C   0  0  0  0  0  0  0  0  0  0  0  0
    1.6387    0.3400    0.0000 C   0  0  0  0  0  0  0  0  0  0  0  0
    3.0300   -0.2207    0.0000 N   0  0  0  0  0  0  0  0  0  0  0  0
  1  2  1  0
  2  3  2  0
  2  4  2  0
  2  5  1  0
  5  6  1  0
  6  7  1  0
M  END
> <Identifier>
2-Aminoethyl methyl sulfone

> <SkinReaction>
0

$$$$

     RDKit          2D

 14 14  0  0  0  0  0  0  0  0999 V2000
   -6.0323    0.1127    0.0000 C   0  0  0  0  0  0  0  0  0  0  0  0
   -4.7686   -0.6954    0.0000 C   0  0  0  0  0  0  0  0  0  0  0  0
   -3.4369   -0.0050    0.0000 C   0  0  0  0  0  0  0  0  0  0  0  0
   -2.1732   -0.8131    0.0000 O   0  0  0  0  0  0  0  0  0  0  0  0
   -0.8415   -0.1227    0.0000 C   0  0  0  0  0  0  0  0  0  0  0  0
   -0.7736    1.3757    0.0000 C   0  0  0  0  0  0  0  0  0  0  0  0
    0.5581    2.0661    0.0000 C   0  0  0  0  0  0  0  0  0  0  0  0
    1.8218    1.2580    0.0000 C   0  0  0  0  0  0  0  0  0  0  0  0
    3.1535    1.9484    0.0000 Br  0  0  0  0  0  0  0  0  0  0  0  0
    1.7539   -0.2404    0.0000 C   0  0  0  0  0  0  0  0  0  0  0  0
    3.0176   -1.0485    0.0000 C   0  0  0  0  0  0  0  0  0  0  0  0
    4.3493   -0.3581    0.0000 O   0  0  0  0  0  0  0  0  0  0  0  0
    2.9497   -2.5470    0.0000 O   0  0  0  0  0  0  0  0  0  0  0  0
    0.4222   -0.9308    0.0000 C   0  0  0  0  0  0  0  0  0  0  0  0
  1  2  1  0
  2  3  1  0
  3  4  1  0
  4  5  1  0
  5  6  2  0
  6  7  1  0
  7  8  2  0
  8  9  1  0
  8 10  1  0
 10 11  1  0
 11 12  2  0
 11 13  1  0
 10 14  2  0
 14  5  1  0
M  END
> <Identifier>
2-Bromo-5-propoxybenzoic acid

> <SkinReaction>
0

$$$$

     RDKit          2D

 14 15  0  0  0  0  0  0  0  0999 V2000
   -4.9331    0.2848    0.0000 C   0  0  0  0  0  0  0  0  0  0  0  0
   -3.7658   -0.6572    0.0000 O   0  0  0  0  0  0  0  0  0  0  0  0
   -2.3664   -0.1173    0.0000 C   0  0  0  0  0  0  0  0  0  0  0  0
   -2.1342    1.3646    0.0000 C   0  0  0  0  0  0  0  0  0  0  0  0
   -0.7347    1.9045    0.0000 C   0  0  0  0  0  0  0  0  0  0  0  0
    0.4326    0.9625    0.0000 C   0  0  0  0  0  0  0  0  0  0  0  0
    1.8320    1.5024    0.0000 N   0  0  0  0  0  0  0  0  0  0  0  0
    2.9993    0.5604    0.0000 C   0  0  0  0  0  0  0  0  0  0  0  0
    4.3988    1.1003    0.0000 Cl  0  0  0  0  0  0  0  0  0  0  0  0
    2.7672   -0.9215    0.0000 C   0  0  0  0  0  0  0  0  0  0  0  0
    1.3677   -1.4614    0.0000 C   0  0  0  0  0  0  0  0  0  0  0  0
    1.1355   -2.9434    0.0000 C   0  0  0  0  0  0  0  0  0  0  0  0
    0.2004   -0.5194    0.0000 C   0  0  0  0  0  0  0  0  0  0  0  0
   -1.1991   -1.0593    0.0000 C   0  0  0  0  0  0  0  0  0  0  0  0
  1  2  1  0
  2  3  1  0
  3  4  2  0
  4  5  1  0
  5  6  2  0
  6  7  1  0
  7  8  2  0
  8  9  1  0
  8 10  1  0
 10 11  2  0
 11 12  1  0
 11 13  1  0
 13 14  2  0
 14  3  1  0
 13  6  1  0
M  END
> <Identifier>
2-Chloro-6-methoxy-4-methylquinoline

> <SkinReaction>
0

$$$$

     RDKit          2D

 10  9  0  0  0  0  0  0  0  0999 V2000
   -3.7892    0.3306    0.0000 C   0  0  0  0  0  0  0  0  0  0  0  0
   -2.4533   -0.3516    0.0000 C   0  0  0  0  0  0  0  0  0  0  0  0
   -2.3762   -1.8496    0.0000 C   0  0  0  0  0  0  0  0  0  0  0  0
   -1.1946    0.4642    0.0000 C   0  0  0  0  0  0  0  0  0  0  0  0
   -1.2717    1.9622    0.0000 O   0  0  0  0  0  0  0  0  0  0  0  0
    0.1413   -0.2180    0.0000 O   0  0  0  0  0  0  0  0  0  0  0  0
    1.4001    0.5978    0.0000 C   0  0  0  0  0  0  0  0  0  0  0  0
    2.7359   -0.0845    0.0000 C   0  0  0  0  0  0  0  0  0  0  0  0
    3.9947    0.7313    0.0000 C   0  0  0  0  0  0  0  0  0  0  0  0
    2.8131   -1.5825    0.0000 O   0  0  0  0  0  0  0  0  0  0  0  0
  1  2  2  0
  2  3  1  0
  2  4  1  0
  4  5  2  0
  4  6  1  0
  6  7  1  0
  7  8  1  0
  8  9  1  0
  8 10  1  0
M  END
> <Identifier>
2-Hydroxypropyl methacrylate

> <SkinReaction>
0

$$$$

     RDKit          2D

 36 40  0  0  0  0  0  0  0  0999 V2000
   -3.4642    5.0527    0.0000 C   0  0  0  0  0  0  0  0  0  0  0  0
   -2.0924    4.4460    0.0000 C   0  0  0  0  0  0  0  0  0  0  0  0
   -1.9319    2.9546    0.0000 C   0  0  0  0  0  0  0  0  0  0  0  0
   -2.8870    2.4221    0.0000 C   0  0  0  0  0  0  0  0  0  0  0  0
   -0.5601    2.3479    0.0000 C   0  0  0  0  0  0  0  0  0  0  0  0
    0.6512    3.2326    0.0000 C   0  0  0  0  0  0  0  0  0  0  0  0
    0.4907    4.7240    0.0000 O   0  0  0  0  0  0  0  0  0  0  0  0
    2.0231    2.6259    0.0000 N   0  0  0  0  0  0  0  0  0  0  0  0
    2.1835    1.1345    0.0000 C   0  0  0  0  0  0  0  0  0  0  0  0
    3.5554    0.5278    0.0000 C   0  0  0  0  0  0  0  0  0  0  0  0
    3.8709   -0.9386    0.0000 C   0  0  0  0  0  0  0  0  0  0  0  0
    5.3630   -1.0917    0.0000 C   0  0  0  0  0  0  0  0  0  0  0  0
    6.2477   -2.3031    0.0000 C   0  0  0  0  0  0  0  0  0  0  0  0
    7.7391   -2.1426    0.0000 C   0  0  0  0  0  0  0  0  0  0  0  0
    8.3458   -0.7708    0.0000 C   0  0  0  0  0  0  0  0  0  0  0  0
    7.4611    0.4406    0.0000 C   0  0  0  0  0  0  0  0  0  0  0  0
    5.9698    0.2801    0.0000 C   0  0  0  0  0  0  0  0  0  0  0  0
    4.8525    1.2810    0.0000 C   0  0  0  0  0  0  0  0  0  0  0  0
    0.9722    0.2498    0.0000 C   0  0  0  0  0  0  0  0  0  0  0  0
    1.1327   -1.2416    0.0000 O   0  0  0  0  0  0  0  0  0  0  0  0
   -0.3996    0.8565    0.0000 N   0  0  0  0  0  0  0  0  0  0  0  0
   -1.6110   -0.0282    0.0000 C   0  0  0  0  0  0  0  0  0  0  0  0
   -2.9828    0.5786    0.0000 C   0  0  0  0  0  0  0  0  0  0  0  0
   -3.2314    1.6434    0.0000 O   0  0  0  0  0  0  0  0  0  0  0  0
   -4.1941   -0.3061    0.0000 N   0  0  0  0  0  0  0  0  0  0  0  0
   -4.0336   -1.7975    0.0000 C   0  0  0  0  0  0  0  0  0  0  0  0
   -5.2450   -2.6822    0.0000 C   0  0  0  0  0  0  0  0  0  0  0  0
   -6.6168   -2.0755    0.0000 O   0  0  0  0  0  0  0  0  0  0  0  0
   -6.7773   -0.5841    0.0000 C   0  0  0  0  0  0  0  0  0  0  0  0
   -5.5659    0.3006    0.0000 C   0  0  0  0  0  0  0  0  0  0  0  0
   -1.4505   -1.5195    0.0000 C   0  0  0  0  0  0  0  0  0  0  0  0
   -0.1496   -2.2663    0.0000 C   0  0  0  0  0  0  0  0  0  0  0  0
   -0.4578   -3.7343    0.0000 O   0  0  0  0  0  0  0  0  0  0  0  0
   -1.9492   -3.8948    0.0000 C   0  0  0  0  0  0  0  0  0  0  0  0
   -2.6960   -5.1957    0.0000 C   0  0  0  0  0  0  0  0  0  0  0  0
   -2.5627   -2.5260    0.0000 N   0  0  0  0  0  0  0  0  0  0  0  0
  1  2  1  0
  2  3  1  0
  3  4  1  0
  3  5  1  0
  5  6  1  0
  6  7  2  0
  6  8  1  0
  8  9  1  0
  9 10  1  0
 10 11  1  0
 11 12  1  0
 12 13  2  0
 13 14  1  0
 14 15  2  0
 15 16  1  0
 16 17  2  0
 17 18  1  0
  9 19  1  0
 19 20  2  0
 19 21  1  0
 21 22  1  0
 22 23  1  0
 23 24  2  0
 23 25  1  0
 25 26  1  0
 26 27  1  0
 27 28  1  0
 28 29  1  0
 29 30  1  0
 22 31  1  0
 31 32  2  0
 32 33  1  0
 33 34  1  0
 34 35  1  0
 34 36  2  0
 21  5  1  0
 30 25  1  0
 36 31  1  0
 18 10  1  0
 17 12  1  0
M  END
> <Identifier>
3-(2,3-Dihydro-1H-inden-2-yl)-1-[1-(2-methyl-1,3-oxazol-4-yl)-2-(4-morpholinyl)-2-oxoethyl]-6-[1-methylpropyl]-2,5-piperazinedione

> <SkinReaction>
0

$$$$

     RDKit          2D

 22 22  0  0  0  0  0  0  0  0999 V2000
   -6.0207   -3.4988    0.0000 N   0  0  0  0  0  0  0  0  0  0  0  0
   -5.7578   -2.0221    0.0000 S   0  0  0  0  0  0  0  0  0  0  0  0
   -7.2346   -1.7591    0.0000 O   0  0  0  0  0  0  0  0  0  0  0  0
   -4.2810   -2.2850    0.0000 O   0  0  0  0  0  0  0  0  0  0  0  0
   -5.4949   -0.5453    0.0000 C   0  0  0  0  0  0  0  0  0  0  0  0
   -6.6424    0.4208    0.0000 C   0  0  0  0  0  0  0  0  0  0  0  0
   -6.3794    1.8976    0.0000 C   0  0  0  0  0  0  0  0  0  0  0  0
   -4.9690    2.4083    0.0000 C   0  0  0  0  0  0  0  0  0  0  0  0
   -3.8216    1.4422    0.0000 C   0  0  0  0  0  0  0  0  0  0  0  0
   -2.4112    1.9529    0.0000 C   0  0  0  0  0  0  0  0  0  0  0  0
   -1.2637    0.9868    0.0000 C   0  0  0  0  0  0  0  0  0  0  0  0
    0.1467    1.4975    0.0000 C   0  0  0  0  0  0  0  0  0  0  0  0
    1.2941    0.5314    0.0000 C   0  0  0  0  0  0  0  0  0  0  0  0
    2.7045    1.0421    0.0000 O   0  0  0  0  0  0  0  0  0  0  0  0
    3.8520    0.0760    0.0000 C   0  0  0  0  0  0  0  0  0  0  0  0
    5.2624    0.5867    0.0000 C   0  0  0  0  0  0  0  0  0  0  0  0
    6.4098   -0.3794    0.0000 C   0  0  0  0  0  0  0  0  0  0  0  0
    7.8202    0.1313    0.0000 C   0  0  0  0  0  0  0  0  0  0  0  0
    8.9677   -0.8348    0.0000 C   0  0  0  0  0  0  0  0  0  0  0  0
   10.3781   -0.3241    0.0000 C   0  0  0  0  0  0  0  0  0  0  0  0
   11.5255   -1.2902    0.0000 Br  0  0  0  0  0  0  0  0  0  0  0  0
   -4.0845   -0.0346    0.0000 C   0  0  0  0  0  0  0  0  0  0  0  0
  1  2  1  0
  2  3  2  0
  2  4  2  0
  2  5  1  0
  5  6  2  0
  6  7  1  0
  7  8  2  0
  8  9  1  0
  9 10  1  0
 10 11  1  0
 11 12  1  0
 12 13  1  0
 13 14  1  0
 14 15  1  0
 15 16  1  0
 16 17  1  0
 17 18  1  0
 18 19  1  0
 19 20  1  0
 20 21  1  0
  9 22  2  0
 22  5  1  0
M  END
> <Identifier>
3-{4-[(6-Bromohexyl)oxy]butyl}benzenesulfonamide

> <SkinReaction>
0

$$$$

     RDKit          2D

 33 36  0  0  0  0  0  0  0  0999 V2000
    5.8058   -2.6568    0.0000 C   0  0  0  0  0  0  0  0  0  0  0  0
    4.3202   -2.4494    0.0000 C   0  0  0  0  0  0  0  0  0  0  0  0
    3.3977   -3.6322    0.0000 C   0  0  0  0  0  0  0  0  0  0  0  0
    3.7571   -1.0591    0.0000 N   0  0  0  0  0  0  0  0  0  0  0  0
    2.2715   -0.8516    0.0000 C   0  0  0  0  0  0  0  0  0  0  0  0
    1.3491   -2.0344    0.0000 O   0  0  0  0  0  0  0  0  0  0  0  0
    1.7084    0.5387    0.0000 C   0  0  0  0  0  0  0  0  0  0  0  0
    0.2228    0.7462    0.0000 N   0  0  0  0  0  0  0  0  0  0  0  0
   -0.2348    2.1747    0.0000 C   0  0  0  0  0  0  0  0  0  0  0  0
    0.8537    3.2068    0.0000 O   0  0  0  0  0  0  0  0  0  0  0  0
   -1.6370    2.7075    0.0000 C   0  0  0  0  0  0  0  0  0  0  0  0
   -1.7653    4.2020    0.0000 N   0  0  0  0  0  0  0  0  0  0  0  0
   -2.9278    1.9435    0.0000 C   0  0  0  0  0  0  0  0  0  0  0  0
   -4.1762    2.7750    0.0000 O   0  0  0  0  0  0  0  0  0  0  0  0
   -3.1353    0.4579    0.0000 N   0  0  0  0  0  0  0  0  0  0  0  0
   -4.5638    0.0003    0.0000 C   0  0  0  0  0  0  0  0  0  0  0  0
   -5.6743    1.0086    0.0000 C   0  0  0  0  0  0  0  0  0  0  0  0
   -7.1028    0.5509    0.0000 C   0  0  0  0  0  0  0  0  0  0  0  0
   -7.4207   -0.9150    0.0000 C   0  0  0  0  0  0  0  0  0  0  0  0
   -6.3102   -1.9233    0.0000 C   0  0  0  0  0  0  0  0  0  0  0  0
   -4.8817   -1.4656    0.0000 C   0  0  0  0  0  0  0  0  0  0  0  0
   -2.1032   -0.6305    0.0000 C   0  0  0  0  0  0  0  0  0  0  0  0
   -2.7393   -1.9890    0.0000 C   0  0  0  0  0  0  0  0  0  0  0  0
   -1.8810   -3.2191    0.0000 C   0  0  0  0  0  0  0  0  0  0  0  0
   -0.3865   -3.0908    0.0000 C   0  0  0  0  0  0  0  0  0  0  0  0
    0.2497   -1.7324    0.0000 C   0  0  0  0  0  0  0  0  0  0  0  0
   -0.6087   -0.5023    0.0000 C   0  0  0  0  0  0  0  0  0  0  0  0
    4.6796    0.1237    0.0000 C   0  0  0  0  0  0  0  0  0  0  0  0
    6.1652   -0.0837    0.0000 C   0  0  0  0  0  0  0  0  0  0  0  0
    7.0876    1.0991    0.0000 C   0  0  0  0  0  0  0  0  0  0  0  0
    6.5245    2.4894    0.0000 C   0  0  0  0  0  0  0  0  0  0  0  0
    5.0390    2.6968    0.0000 C   0  0  0  0  0  0  0  0  0  0  0  0
    4.1165    1.5140    0.0000 C   0  0  0  0  0  0  0  0  0  0  0  0
  1  2  1  0
  2  3  1  0
  2  4  1  0
  4  5  1  0
  5  6  2  0
  5  7  1  0
  7  8  1  0
  8  9  1  0
  9 10  2  0
  9 11  1  0
 11 12  1  0
 11 13  1  0
 13 14  2  0
 13 15  1  0
 15 16  1  0
 16 17  2  0
 17 18  1  0
 18 19  2  0
 19 20  1  0
 20 21  2  0
 15 22  1  0
 22 23  2  0
 23 24  1  0
 24 25  2  0
 25 26  1  0
 26 27  2  0
  4 28  1  0
 28 29  2  0
 29 30  1  0
 30 31  2  0
 31 32  1  0
 32 33  2  0
 27  8  1  0
 33 28  1  0
 21 16  1  0
 27 22  1  0
M  END
> <Identifier>
3-Amino-2,3,4,5-tetrahydro-N-(1-methylethyl)-2,4-dioxo-N,5-diphenyl-1H-1,5-benzodiazepine-1-acetamide

> <SkinReaction>
0

$$$$

     RDKit          2D

 20 22  0  0  0  0  0  0  0  0999 V2000
    3.5428    2.4241    0.0000 O   0  0  0  0  0  0  0  0  0  0  0  0
    2.0432    2.3881    0.0000 C   0  0  0  0  0  0  0  0  0  0  0  0
    1.2622    3.6687    0.0000 O   0  0  0  0  0  0  0  0  0  0  0  0
    1.3246    1.0714    0.0000 C   0  0  0  0  0  0  0  0  0  0  0  0
   -0.1749    1.0353    0.0000 C   0  0  0  0  0  0  0  0  0  0  0  0
   -0.9559    2.3160    0.0000 O   0  0  0  0  0  0  0  0  0  0  0  0
   -0.8935   -0.2814    0.0000 C   0  0  0  0  0  0  0  0  0  0  0  0
   -2.3931   -0.3174    0.0000 C   0  0  0  0  0  0  0  0  0  0  0  0
   -3.1741    0.9632    0.0000 C   0  0  0  0  0  0  0  0  0  0  0  0
   -4.6736    0.9272    0.0000 C   0  0  0  0  0  0  0  0  0  0  0  0
   -5.3922   -0.3895    0.0000 C   0  0  0  0  0  0  0  0  0  0  0  0
   -4.6112   -1.6702    0.0000 C   0  0  0  0  0  0  0  0  0  0  0  0
   -3.1116   -1.6341    0.0000 C   0  0  0  0  0  0  0  0  0  0  0  0
   -0.1125   -1.5620    0.0000 N   0  0  0  0  0  0  0  0  0  0  0  0
    1.3871   -1.5259    0.0000 C   0  0  0  0  0  0  0  0  0  0  0  0
    2.1681   -2.8066    0.0000 C   0  0  0  0  0  0  0  0  0  0  0  0
    3.6677   -2.7705    0.0000 C   0  0  0  0  0  0  0  0  0  0  0  0
    4.3862   -1.4538    0.0000 C   0  0  0  0  0  0  0  0  0  0  0  0
    3.6052   -0.1732    0.0000 C   0  0  0  0  0  0  0  0  0  0  0  0
    2.1056   -0.2093    0.0000 C   0  0  0  0  0  0  0  0  0  0  0  0
  1  2  2  0
  2  3  1  0
  2  4  1  0
  4  5  2  0
  5  6  1  0
  5  7  1  0
  7  8  1  0
  8  9  2  0
  9 10  1  0
 10 11  2  0
 11 12  1  0
 12 13  2  0
  7 14  2  0
 14 15  1  0
 15 16  2  0
 16 17  1  0
 17 18  2  0
 18 19  1  0
 19 20  2  0
 20  4  1  0
 13  8  1  0
 20 15  1  0
M  END
> <Identifier>
3-Hydroxy-2-phenyl-4-quinolinecarboxylic acid

> <SkinReaction>
0

$$$$

     RDKit          2D

 11 11  0  0  0  0  0  0  0  0999 V2000
   -3.8075    0.9582    0.0000 C   0  0  0  0  0  0  0  0  0  0  0  0
   -2.8657   -0.2093    0.0000 O   0  0  0  0  0  0  0  0  0  0  0  0
   -1.3838    0.0226    0.0000 C   0  0  0  0  0  0  0  0  0  0  0  0
   -0.8436    1.4219    0.0000 C   0  0  0  0  0  0  0  0  0  0  0  0
    0.6384    1.6538    0.0000 C   0  0  0  0  0  0  0  0  0  0  0  0
    1.5802    0.4863    0.0000 C   0  0  0  0  0  0  0  0  0  0  0  0
    3.0622    0.7181    0.0000 C   0  0  0  0  0  0  0  0  0  0  0  0
    4.0039   -0.4494    0.0000 O   0  0  0  0  0  0  0  0  0  0  0  0
    1.0400   -0.9131    0.0000 C   0  0  0  0  0  0  0  0  0  0  0  0
   -0.4420   -1.1449    0.0000 C   0  0  0  0  0  0  0  0  0  0  0  0
   -0.9822   -2.5443    0.0000 O   0  0  0  0  0  0  0  0  0  0  0  0
  1  2  1  0
  2  3  1  0
  3  4  2  0
  4  5  1  0
  5  6  2  0
  6  7  1  0
  7  8  2  0
  6  9  1  0
  9 10  2  0
 10 11  1  0
 10  3  1  0
M  END
> <Identifier>
3-Hydroxy-4-methoxybenzaldehyde

> <SkinReaction>
0

$$$$

     RDKit          2D

 10 10  0  0  0  0  0  0  0  0999 V2000
    3.7500    0.0000    0.0000 C   0  0  0  0  0  0  0  0  0  0  0  0
    2.2500   -0.0000    0.0000 C   0  0  0  0  0  0  0  0  0  0  0  0
    1.5000   -1.2990    0.0000 C   0  0  0  0  0  0  0  0  0  0  0  0
   -0.0000   -1.2990    0.0000 C   0  0  0  0  0  0  0  0  0  0  0  0
   -0.7500    0.0000    0.0000 C   0  0  0  0  0  0  0  0  0  0  0  0
   -2.2500    0.0000    0.0000 C   0  0  0  0  0  0  0  0  0  0  0  0
   -3.0000    1.2990    0.0000 C   0  0  0  0  0  0  0  0  0  0  0  0
   -3.0000   -1.2990    0.0000 C   0  0  0  0  0  0  0  0  0  0  0  0
    0.0000    1.2990    0.0000 C   0  0  0  0  0  0  0  0  0  0  0  0
    1.5000    1.2990    0.0000 C   0  0  0  0  0  0  0  0  0  0  0  0
  1  2  1  0
  2  3  1  0
  3  4  2  0
  4  5  1  0
  5  6  1  0
  6  7  1  0
  6  8  1  0
  5  9  1  0
  9 10  1  0
 10  2  1  0
M  END
> <Identifier>
3-Isopropyl-6-methylcyclohexene

> <SkinReaction>
0

$$$$

     RDKit          2D

 13 13  0  0  0  0  0  0  0  0999 V2000
   -5.7947   -0.1092    0.0000 C   0  0  0  0  0  0  0  0  0  0  0  0
   -4.4817   -0.8346    0.0000 C   0  0  0  0  0  0  0  0  0  0  0  0
   -3.1971   -0.0603    0.0000 C   0  0  0  0  0  0  0  0  0  0  0  0
   -1.8841   -0.7857    0.0000 O   0  0  0  0  0  0  0  0  0  0  0  0
   -0.5994   -0.0113    0.0000 C   0  0  0  0  0  0  0  0  0  0  0  0
   -0.6277    1.4884    0.0000 C   0  0  0  0  0  0  0  0  0  0  0  0
    0.6569    2.2628    0.0000 C   0  0  0  0  0  0  0  0  0  0  0  0
    1.9699    1.5374    0.0000 C   0  0  0  0  0  0  0  0  0  0  0  0
    1.9982    0.0377    0.0000 C   0  0  0  0  0  0  0  0  0  0  0  0
    3.3111   -0.6877    0.0000 C   0  0  0  0  0  0  0  0  0  0  0  0
    4.5958    0.0866    0.0000 O   0  0  0  0  0  0  0  0  0  0  0  0
    3.3394   -2.1874    0.0000 O   0  0  0  0  0  0  0  0  0  0  0  0
    0.7135   -0.7367    0.0000 C   0  0  0  0  0  0  0  0  0  0  0  0
  1  2  1  0
  2  3  1  0
  3  4  1  0
  4  5  1  0
  5  6  2  0
  6  7  1  0
  7  8  2  0
  8  9  1  0
  9 10  1  0
 10 11  2  0
 10 12  1  0
  9 13  2  0
 13  5  1  0
M  END
> <Identifier>
3-Propoxybenzoic acid

> <SkinReaction>
0

$$$$

     RDKit          2D

 18 19  0  0  0  0  0  0  0  0999 V2000
   -6.6647    0.9884    0.0000 O   0  0  0  0  0  0  0  0  0  0  0  0
   -5.8686   -0.2829    0.0000 C   0  0  0  0  0  0  0  0  0  0  0  0
   -4.3696   -0.2291    0.0000 C   0  0  0  0  0  0  0  0  0  0  0  0
   -3.6667    1.0960    0.0000 C   0  0  0  0  0  0  0  0  0  0  0  0
   -2.1676    1.1498    0.0000 C   0  0  0  0  0  0  0  0  0  0  0  0
   -1.3715   -0.1214    0.0000 C   0  0  0  0  0  0  0  0  0  0  0  0
    0.1275   -0.0676    0.0000 C   0  0  0  0  0  0  0  0  0  0  0  0
    0.9236   -1.3389    0.0000 C   0  0  0  0  0  0  0  0  0  0  0  0
    2.4227   -1.2851    0.0000 C   0  0  0  0  0  0  0  0  0  0  0  0
    3.1256    0.0400    0.0000 C   0  0  0  0  0  0  0  0  0  0  0  0
    4.6246    0.0938    0.0000 C   0  0  0  0  0  0  0  0  0  0  0  0
    6.1236    0.1476    0.0000 F   0  0  0  0  0  0  0  0  0  0  0  0
    4.6784   -1.4052    0.0000 F   0  0  0  0  0  0  0  0  0  0  0  0
    4.5708    1.5928    0.0000 F   0  0  0  0  0  0  0  0  0  0  0  0
    2.3295    1.3113    0.0000 C   0  0  0  0  0  0  0  0  0  0  0  0
    0.8304    1.2575    0.0000 C   0  0  0  0  0  0  0  0  0  0  0  0
   -2.0744   -1.4466    0.0000 C   0  0  0  0  0  0  0  0  0  0  0  0
   -3.5735   -1.5004    0.0000 C   0  0  0  0  0  0  0  0  0  0  0  0
  1  2  2  0
  2  3  1  0
  3  4  2  0
  4  5  1  0
  5  6  2  0
  6  7  1  0
  7  8  2  0
  8  9  1  0
  9 10  2  0
 10 11  1  0
 11 12  1  0
 11 13  1  0
 11 14  1  0
 10 15  1  0
 15 16  2  0
  6 17  1  0
 17 18  2  0
 18  3  1  0
 16  7  1  0
M  END
> <Identifier>
4'-(Trifluoromethyl)-[1,1'- biphenyl]-4-carboxaldehyde

> <SkinReaction>
0

$$$$

     RDKit          2D

 42 46  0  0  0  0  0  0  0  0999 V2000
    1.2415   -4.2515    0.0000 C   0  0  0  0  0  0  0  0  0  0  0  0
    0.9535   -2.7794    0.0000 C   0  0  0  0  0  0  0  0  0  0  0  0
   -0.4654   -2.2927    0.0000 C   0  0  0  0  0  0  0  0  0  0  0  0
   -0.7534   -0.8206    0.0000 C   0  0  0  0  0  0  0  0  0  0  0  0
   -2.1723   -0.3340    0.0000 N   0  0  0  0  0  0  0  0  0  0  0  0
   -3.3031   -1.3195    0.0000 C   0  0  0  0  0  0  0  0  0  0  0  0
   -3.0152   -2.7916    0.0000 O   0  0  0  0  0  0  0  0  0  0  0  0
   -4.7220   -0.8328    0.0000 C   0  0  0  0  0  0  0  0  0  0  0  0
   -5.8529   -1.8183    0.0000 C   0  0  0  0  0  0  0  0  0  0  0  0
   -5.5649   -3.2904    0.0000 O   0  0  0  0  0  0  0  0  0  0  0  0
   -7.2718   -1.3317    0.0000 C   0  0  0  0  0  0  0  0  0  0  0  0
   -7.5598    0.1404    0.0000 C   0  0  0  0  0  0  0  0  0  0  0  0
   -8.9786    0.6271    0.0000 C   0  0  0  0  0  0  0  0  0  0  0  0
  -10.1095   -0.3584    0.0000 C   0  0  0  0  0  0  0  0  0  0  0  0
   -9.8215   -1.8305    0.0000 C   0  0  0  0  0  0  0  0  0  0  0  0
   -8.4026   -2.3171    0.0000 C   0  0  0  0  0  0  0  0  0  0  0  0
   -5.0100    0.6393    0.0000 N   0  0  0  0  0  0  0  0  0  0  0  0
   -3.8791    1.6247    0.0000 C   0  0  0  0  0  0  0  0  0  0  0  0
   -4.1671    3.0968    0.0000 O   0  0  0  0  0  0  0  0  0  0  0  0
   -2.4603    1.1381    0.0000 C   0  0  0  0  0  0  0  0  0  0  0  0
   -1.0414    0.6515    0.0000 C   0  0  0  0  0  0  0  0  0  0  0  0
    0.0895    1.6369    0.0000 C   0  0  0  0  0  0  0  0  0  0  0  0
   -0.1985    3.1090    0.0000 N   0  0  0  0  0  0  0  0  0  0  0  0
    0.9323    4.0945    0.0000 C   0  0  0  0  0  0  0  0  0  0  0  0
    2.3512    3.6078    0.0000 C   0  0  0  0  0  0  0  0  0  0  0  0
    2.6392    2.1357    0.0000 C   0  0  0  0  0  0  0  0  0  0  0  0
    4.0581    1.6491    0.0000 C   0  0  0  0  0  0  0  0  0  0  0  0
    5.1889    2.6346    0.0000 C   0  0  0  0  0  0  0  0  0  0  0  0
    6.6078    2.1479    0.0000 O   0  0  0  0  0  0  0  0  0  0  0  0
    6.8958    0.6758    0.0000 C   0  0  0  0  0  0  0  0  0  0  0  0
    5.7649   -0.3096    0.0000 C   0  0  0  0  0  0  0  0  0  0  0  0
    6.0529   -1.7817    0.0000 C   0  0  0  0  0  0  0  0  0  0  0  0
    7.4718   -2.2683    0.0000 C   0  0  0  0  0  0  0  0  0  0  0  0
    7.7598   -3.7404    0.0000 C   0  0  0  0  0  0  0  0  0  0  0  0
    9.1787   -4.2271    0.0000 O   0  0  0  0  0  0  0  0  0  0  0  0
    6.6289   -4.7259    0.0000 O   0  0  0  0  0  0  0  0  0  0  0  0
    8.6027   -1.2829    0.0000 C   0  0  0  0  0  0  0  0  0  0  0  0
    8.3147    0.1892    0.0000 C   0  0  0  0  0  0  0  0  0  0  0  0
    4.9009    4.1067    0.0000 C   0  0  0  0  0  0  0  0  0  0  0  0
    3.4821    4.5933    0.0000 C   0  0  0  0  0  0  0  0  0  0  0  0
   -1.6174    3.5956    0.0000 C   0  0  0  0  0  0  0  0  0  0  0  0
   -2.7483    2.6102    0.0000 C   0  0  0  0  0  0  0  0  0  0  0  0
  1  2  1  0
  2  3  1  0
  3  4  1  0
  4  5  1  0
  5  6  1  0
  6  7  2  0
  6  8  1  0
  8  9  1  0
  9 10  1  0
  9 11  1  0
 11 12  1  0
 12 13  1  0
 13 14  1  0
 14 15  1  0
 15 16  1  0
  8 17  1  0
 17 18  1  0
 18 19  2  0
 18 20  1  0
 20 21  1  0
 21 22  1  0
 22 23  1  0
 23 24  1  0
 24 25  1  0
 25 26  2  0
 26 27  1  0
 27 28  2  0
 28 29  1  0
 29 30  1  0
 30 31  2  0
 31 32  1  0
 32 33  2  0
 33 34  1  0
 34 35  2  0
 34 36  1  0
 33 37  1  0
 37 38  2  0
 28 39  1  0
 39 40  2  0
 23 41  1  0
 41 42  1  0
 20  5  1  0
 40 25  1  0
 16 11  1  0
 42 20  1  0
 38 30  1  0
M  END
> <Identifier>
4-[4-({1-Butyl-3-[cyclohexyl(hydroxy)methyl]-2,5-dioxo-1,4,9-triazaspiro[5.5]undec-9-yl}methyl)phenoxy]benzoic acid

> <SkinReaction>
0

$$$$

     RDKit          2D

 25 27  0  0  0  0  0  0  0  0999 V2000
   -5.7662    1.9842    0.0000 C   0  0  0  0  0  0  0  0  0  0  0  0
   -4.8375    0.8062    0.0000 O   0  0  0  0  0  0  0  0  0  0  0  0
   -3.3531    1.0215    0.0000 C   0  0  0  0  0  0  0  0  0  0  0  0
   -2.7973    2.4147    0.0000 C   0  0  0  0  0  0  0  0  0  0  0  0
   -1.3128    2.6300    0.0000 C   0  0  0  0  0  0  0  0  0  0  0  0
   -0.3841    1.4521    0.0000 C   0  0  0  0  0  0  0  0  0  0  0  0
    1.1003    1.6674    0.0000 C   0  0  0  0  0  0  0  0  0  0  0  0
    0.6305    3.0919    0.0000 C   0  0  0  0  0  0  0  0  0  0  0  0
    0.1607    4.5165    0.0000 N   0  0  0  0  0  0  0  0  0  0  0  0
    1.0546    0.1681    0.0000 C   0  0  0  0  0  0  0  0  0  0  0  0
    2.3301   -0.6212    0.0000 C   0  0  0  0  0  0  0  0  0  0  0  0
    3.6514    0.0888    0.0000 C   0  0  0  0  0  0  0  0  0  0  0  0
    4.9270   -0.7004    0.0000 C   0  0  0  0  0  0  0  0  0  0  0  0
    6.2483    0.0096    0.0000 O   0  0  0  0  0  0  0  0  0  0  0  0
    4.8812   -2.1997    0.0000 O   0  0  0  0  0  0  0  0  0  0  0  0
    3.6972    1.5881    0.0000 C   0  0  0  0  0  0  0  0  0  0  0  0
    2.4216    2.3774    0.0000 C   0  0  0  0  0  0  0  0  0  0  0  0
   -0.9399    0.0589    0.0000 C   0  0  0  0  0  0  0  0  0  0  0  0
   -2.4244   -0.1564    0.0000 C   0  0  0  0  0  0  0  0  0  0  0  0
   -2.9802   -1.5497    0.0000 O   0  0  0  0  0  0  0  0  0  0  0  0
   -2.0515   -2.7276    0.0000 C   0  0  0  0  0  0  0  0  0  0  0  0
   -0.5527   -2.6687    0.0000 C   0  0  0  0  0  0  0  0  0  0  0  0
   -0.0334   -4.0759    0.0000 C   0  0  0  0  0  0  0  0  0  0  0  0
   -1.2114   -5.0046    0.0000 C   0  0  0  0  0  0  0  0  0  0  0  0
   -2.4586   -4.1713    0.0000 C   0  0  0  0  0  0  0  0  0  0  0  0
  1  2  1  0
  2  3  1  0
  3  4  2  0
  4  5  1  0
  5  6  2  0
  6  7  1  0
  7  8  1  0
  8  9  3  0
  7 10  1  0
 10 11  1  0
 11 12  1  0
 12 13  1  0
 13 14  2  0
 13 15  1  0
 12 16  1  0
 16 17  1  0
  6 18  1  0
 18 19  2  0
 19 20  1  0
 20 21  1  0
 21 22  1  0
 22 23  1  0
 23 24  1  0
 24 25  1  0
 19  3  1  0
 25 21  1  0
 17  7  1  0
M  END
> <Identifier>
4-Cyano-4-[3-(cyclopentyloxy)-4-methoxyphenyl]cyclohexanecarboxylic acid

> <SkinReaction>
0

$$$$

     RDKit          2D

  9  9  0  0  0  0  0  0  0  0999 V2000
   -2.9132    0.9519    0.0000 N   0  0  0  0  0  0  0  0  0  0  0  0
   -1.9333   -0.1838    0.0000 C   0  0  0  0  0  0  0  0  0  0  0  0
   -2.4269   -1.6003    0.0000 O   0  0  0  0  0  0  0  0  0  0  0  0
   -0.4598    0.0969    0.0000 C   0  0  0  0  0  0  0  0  0  0  0  0
    0.6334   -0.9301    0.0000 C   0  0  0  0  0  0  0  0  0  0  0  0
    1.9481   -0.2077    0.0000 C   0  0  0  0  0  0  0  0  0  0  0  0
    3.3052   -0.8467    0.0000 F   0  0  0  0  0  0  0  0  0  0  0  0
    1.6673    1.2657    0.0000 C   0  0  0  0  0  0  0  0  0  0  0  0
    0.1792    1.4541    0.0000 N   0  0  0  0  0  0  0  0  0  0  0  0
  1  2  1  0
  2  3  2  0
  2  4  1  0
  4  5  1  0
  5  6  1  0
  6  7  1  0
  6  8  1  0
  8  9  1  0
  9  4  1  0
M  END
> <Identifier>
4-Fluoro-2-Pyrrolidine-Carboxamide

> <SkinReaction>
0

$$$$

     RDKit          2D

 10 10  0  0  0  0  0  0  0  0999 V2000
    3.0000    1.2990    0.0000 O   0  0  0  0  0  0  0  0  0  0  0  0
    2.2500    0.0000    0.0000 C   0  0  0  0  0  0  0  0  0  0  0  0
    3.0000   -1.2990    0.0000 O   0  0  0  0  0  0  0  0  0  0  0  0
    0.7500   -0.0000    0.0000 C   0  0  0  0  0  0  0  0  0  0  0  0
   -0.0000   -1.2990    0.0000 C   0  0  0  0  0  0  0  0  0  0  0  0
   -1.5000   -1.2990    0.0000 C   0  0  0  0  0  0  0  0  0  0  0  0
   -2.2500    0.0000    0.0000 C   0  0  0  0  0  0  0  0  0  0  0  0
   -3.7500    0.0000    0.0000 O   0  0  0  0  0  0  0  0  0  0  0  0
   -1.5000    1.2990    0.0000 C   0  0  0  0  0  0  0  0  0  0  0  0
    0.0000    1.2990    0.0000 C   0  0  0  0  0  0  0  0  0  0  0  0
  1  2  2  0
  2  3  1  0
  2  4  1  0
  4  5  2  0
  5  6  1  0
  6  7  2  0
  7  8  1  0
  7  9  1  0
  9 10  2  0
 10  4  1  0
M  END
> <Identifier>
4-Hydroxybenzoic acid

> <SkinReaction>
0

$$$$

     RDKit          2D

 11 11  0  0  0  0  0  0  0  0999 V2000
    2.3655   -2.0413    0.0000 C   0  0  0  0  0  0  0  0  0  0  0  0
    1.4355   -0.8644    0.0000 C   0  0  0  0  0  0  0  0  0  0  0  0
   -0.0487   -1.0813    0.0000 C   0  0  0  0  0  0  0  0  0  0  0  0
   -0.9787    0.0957    0.0000 C   0  0  0  0  0  0  0  0  0  0  0  0
   -2.4629   -0.1212    0.0000 C   0  0  0  0  0  0  0  0  0  0  0  0
   -3.0172   -1.5150    0.0000 C   0  0  0  0  0  0  0  0  0  0  0  0
   -3.3929    1.0557    0.0000 C   0  0  0  0  0  0  0  0  0  0  0  0
   -0.4244    1.4895    0.0000 C   0  0  0  0  0  0  0  0  0  0  0  0
    1.0599    1.7064    0.0000 C   0  0  0  0  0  0  0  0  0  0  0  0
    1.9898    0.5295    0.0000 C   0  0  0  0  0  0  0  0  0  0  0  0
    3.4740    0.7463    0.0000 C   0  0  0  0  0  0  0  0  0  0  0  0
  1  2  2  0
  2  3  1  0
  3  4  1  0
  4  5  1  0
  5  6  2  0
  5  7  1  0
  4  8  1  0
  8  9  1  0
  9 10  1  0
 10 11  1  0
 10  2  1  0
M  END
> <Identifier>
4-Isopropenyl-1-methyl-2-methylene-cyclohexane

> <SkinReaction>
0

$$$$

     RDKit          2D

 10 10  0  0  0  0  0  0  0  0999 V2000
    3.7500    0.0000    0.0000 C   0  0  0  0  0  0  0  0  0  0  0  0
    2.2500   -0.0000    0.0000 C   0  0  0  0  0  0  0  0  0  0  0  0
    1.5000   -1.2990    0.0000 C   0  0  0  0  0  0  0  0  0  0  0  0
   -0.0000   -1.2990    0.0000 C   0  0  0  0  0  0  0  0  0  0  0  0
   -0.7500    0.0000    0.0000 C   0  0  0  0  0  0  0  0  0  0  0  0
   -2.2500    0.0000    0.0000 C   0  0  0  0  0  0  0  0  0  0  0  0
   -3.0000    1.2990    0.0000 C   0  0  0  0  0  0  0  0  0  0  0  0
   -3.0000   -1.2990    0.0000 C   0  0  0  0  0  0  0  0  0  0  0  0
    0.0000    1.2990    0.0000 C   0  0  0  0  0  0  0  0  0  0  0  0
    1.5000    1.2990    0.0000 C   0  0  0  0  0  0  0  0  0  0  0  0
  1  2  2  0
  2  3  1  0
  3  4  1  0
  4  5  1  0
  5  6  1  0
  6  7  1  0
  6  8  1  0
  5  9  1  0
  9 10  1  0
 10  2  1  0
M  END
> <Identifier>
4-Isopropyl-1-methylene-cyclohexane

> <SkinReaction>
0

$$$$

     RDKit          2D

 11 11  0  0  0  0  0  0  0  0999 V2000
   -4.1862    0.7785    0.0000 C   0  0  0  0  0  0  0  0  0  0  0  0
   -3.3137   -0.4417    0.0000 O   0  0  0  0  0  0  0  0  0  0  0  0
   -1.8208   -0.2961    0.0000 C   0  0  0  0  0  0  0  0  0  0  0  0
   -1.2003    1.0695    0.0000 C   0  0  0  0  0  0  0  0  0  0  0  0
    0.2926    1.2151    0.0000 C   0  0  0  0  0  0  0  0  0  0  0  0
    1.1651   -0.0051    0.0000 C   0  0  0  0  0  0  0  0  0  0  0  0
    2.6580    0.1404    0.0000 C   0  0  0  0  0  0  0  0  0  0  0  0
    3.5305   -1.0797    0.0000 C   0  0  0  0  0  0  0  0  0  0  0  0
    3.2784    1.5061    0.0000 O   0  0  0  0  0  0  0  0  0  0  0  0
    0.5446   -1.3708    0.0000 C   0  0  0  0  0  0  0  0  0  0  0  0
   -0.9483   -1.5163    0.0000 C   0  0  0  0  0  0  0  0  0  0  0  0
  1  2  1  0
  2  3  1  0
  3  4  2  0
  4  5  1  0
  5  6  2  0
  6  7  1  0
  7  8  1  0
  7  9  2  0
  6 10  1  0
 10 11  2  0
 11  3  1  0
M  END
> <Identifier>
4'-Methoxyacetophenone

> <SkinReaction>
0

$$$$

     RDKit          2D

 31 34  0  0  0  0  0  0  0  0999 V2000
   -5.8587    3.1697    0.0000 C   0  0  0  0  0  0  0  0  0  0  0  0
   -5.1790    1.8325    0.0000 C   0  0  0  0  0  0  0  0  0  0  0  0
   -3.6812    1.7526    0.0000 C   0  0  0  0  0  0  0  0  0  0  0  0
   -3.0015    0.4154    0.0000 C   0  0  0  0  0  0  0  0  0  0  0  0
   -3.8197   -0.8418    0.0000 C   0  0  0  0  0  0  0  0  0  0  0  0
   -3.1400   -2.1790    0.0000 N   0  0  0  0  0  0  0  0  0  0  0  0
   -1.6421   -2.2590    0.0000 C   0  0  0  0  0  0  0  0  0  0  0  0
   -0.9624   -3.5961    0.0000 N   0  0  0  0  0  0  0  0  0  0  0  0
    0.5354   -3.6761    0.0000 C   0  0  0  0  0  0  0  0  0  0  0  0
    1.3536   -2.4189    0.0000 C   0  0  0  0  0  0  0  0  0  0  0  0
    0.6739   -1.0817    0.0000 C   0  0  0  0  0  0  0  0  0  0  0  0
    1.4921    0.1755    0.0000 N   0  0  0  0  0  0  0  0  0  0  0  0
    0.8124    1.5127    0.0000 C   0  0  0  0  0  0  0  0  0  0  0  0
    2.9900    0.0955    0.0000 C   0  0  0  0  0  0  0  0  0  0  0  0
    3.6697   -1.2417    0.0000 C   0  0  0  0  0  0  0  0  0  0  0  0
    5.1675   -1.3216    0.0000 C   0  0  0  0  0  0  0  0  0  0  0  0
    5.9857   -0.0644    0.0000 C   0  0  0  0  0  0  0  0  0  0  0  0
    7.4675    0.1688    0.0000 C   0  0  0  0  0  0  0  0  0  0  0  0
    8.5271   -0.8929    0.0000 C   0  0  0  0  0  0  0  0  0  0  0  0
    7.7036    1.6501    0.0000 N   0  0  0  0  0  0  0  0  0  0  0  0
    9.0408    2.3298    0.0000 C   0  0  0  0  0  0  0  0  0  0  0  0
    6.3677    2.3324    0.0000 N   0  0  0  0  0  0  0  0  0  0  0  0
    5.3060    1.2728    0.0000 C   0  0  0  0  0  0  0  0  0  0  0  0
    3.8082    1.3527    0.0000 C   0  0  0  0  0  0  0  0  0  0  0  0
   -0.8239   -1.0018    0.0000 N   0  0  0  0  0  0  0  0  0  0  0  0
   -5.3175   -0.7619    0.0000 C   0  0  0  0  0  0  0  0  0  0  0  0
   -5.9972    0.5753    0.0000 C   0  0  0  0  0  0  0  0  0  0  0  0
   -7.4951    0.6553    0.0000 S   0  0  0  0  0  0  0  0  0  0  0  0
   -8.9929    0.7352    0.0000 N   0  0  0  0  0  0  0  0  0  0  0  0
   -7.5750   -0.8426    0.0000 O   0  0  0  0  0  0  0  0  0  0  0  0
   -7.4151    2.1531    0.0000 O   0  0  0  0  0  0  0  0  0  0  0  0
  1  2  1  0
  2  3  2  0
  3  4  1  0
  4  5  2  0
  5  6  1  0
  6  7  1  0
  7  8  2  0
  8  9  1  0
  9 10  2  0
 10 11  1  0
 11 12  1  0
 12 13  1  0
 12 14  1  0
 14 15  1  0
 15 16  2  0
 16 17  1  0
 17 18  2  0
 18 19  1  0
 18 20  1  0
 20 21  1  0
 20 22  1  0
 22 23  2  0
 23 24  1  0
 11 25  2  0
  5 26  1  0
 26 27  2  0
 27 28  1  0
 28 29  1  0
 28 30  2  0
 28 31  2  0
 27  2  1  0
 25  7  1  0
 24 14  2  0
 23 17  1  0
M  END
> <Identifier>
5-({4-[(2,3-Dimethyl-2H-indazol-6-yl)(methyl)amino]-2-pyrimidinyl}amino)-2-methylbenzenesulfonamide

> <SkinReaction>
0

$$$$

     RDKit          2D

 12 12  0  0  0  0  0  0  0  0999 V2000
    1.2414   -2.3129    0.0000 C   0  0  0  0  0  0  0  0  0  0  0  0
    0.0922   -1.3489    0.0000 C   0  0  0  0  0  0  0  0  0  0  0  0
   -1.3173   -1.8622    0.0000 C   0  0  0  0  0  0  0  0  0  0  0  0
   -2.4665   -0.8983    0.0000 C   0  0  0  0  0  0  0  0  0  0  0  0
   -2.2063    0.5790    0.0000 C   0  0  0  0  0  0  0  0  0  0  0  0
   -3.3556    1.5429    0.0000 N   0  0  0  0  0  0  0  0  0  0  0  0
   -0.7969    1.0923    0.0000 C   0  0  0  0  0  0  0  0  0  0  0  0
    0.3524    0.1283    0.0000 C   0  0  0  0  0  0  0  0  0  0  0  0
    1.7618    0.6416    0.0000 S   0  0  0  0  0  0  0  0  0  0  0  0
    3.1712    1.1550    0.0000 N   0  0  0  0  0  0  0  0  0  0  0  0
    1.2485    2.0511    0.0000 O   0  0  0  0  0  0  0  0  0  0  0  0
    2.2751   -0.7678    0.0000 O   0  0  0  0  0  0  0  0  0  0  0  0
  1  2  1  0
  2  3  2  0
  3  4  1  0
  4  5  2  0
  5  6  1  0
  5  7  1  0
  7  8  2  0
  8  9  1  0
  9 10  1  0
  9 11  2  0
  9 12  2  0
  8  2  1  0
M  END
> <Identifier>
5-Amino-2-methylbenzene-sulfonamide

> <SkinReaction>
0

$$$$

     RDKit          2D

 16 17  0  0  0  0  0  0  0  0999 V2000
   -5.3165   -0.0225    0.0000 C   0  0  0  0  0  0  0  0  0  0  0  0
   -4.2013   -1.0257    0.0000 O   0  0  0  0  0  0  0  0  0  0  0  0
   -2.7749   -0.5615    0.0000 C   0  0  0  0  0  0  0  0  0  0  0  0
   -2.4638    0.9058    0.0000 C   0  0  0  0  0  0  0  0  0  0  0  0
   -1.0374    1.3700    0.0000 C   0  0  0  0  0  0  0  0  0  0  0  0
   -0.7262    2.8374    0.0000 C   0  0  0  0  0  0  0  0  0  0  0  0
    0.0778    0.3668    0.0000 C   0  0  0  0  0  0  0  0  0  0  0  0
    1.5042    0.8310    0.0000 C   0  0  0  0  0  0  0  0  0  0  0  0
    1.8154    2.2984    0.0000 Cl  0  0  0  0  0  0  0  0  0  0  0  0
    2.6193   -0.1721    0.0000 C   0  0  0  0  0  0  0  0  0  0  0  0
    4.0457    0.2920    0.0000 O   0  0  0  0  0  0  0  0  0  0  0  0
    5.1609   -0.7111    0.0000 C   0  0  0  0  0  0  0  0  0  0  0  0
    2.3082   -1.6395    0.0000 C   0  0  0  0  0  0  0  0  0  0  0  0
    0.8818   -2.1037    0.0000 C   0  0  0  0  0  0  0  0  0  0  0  0
   -0.2334   -1.1005    0.0000 C   0  0  0  0  0  0  0  0  0  0  0  0
   -1.6598   -1.5647    0.0000 N   0  0  0  0  0  0  0  0  0  0  0  0
  1  2  1  0
  2  3  1  0
  3  4  2  0
  4  5  1  0
  5  6  1  0
  5  7  2  0
  7  8  1  0
  8  9  1  0
  8 10  2  0
 10 11  1  0
 11 12  1  0
 10 13  1  0
 13 14  2  0
 14 15  1  0
 15 16  2  0
 16  3  1  0
 15  7  1  0
M  END
> <Identifier>
5-Chloro-2,6-dimethoxy-4-methylquinoline

> <SkinReaction>
0

$$$$

     RDKit          2D

 18 18  0  0  0  0  0  0  0  0999 V2000
    2.8085   -3.2969    0.0000 C   0  0  0  0  0  0  0  0  0  0  0  0
    2.8112   -1.7969    0.0000 O   0  0  0  0  0  0  0  0  0  0  0  0
    1.5136   -1.0445    0.0000 C   0  0  0  0  0  0  0  0  0  0  0  0
    0.2132   -1.7921    0.0000 C   0  0  0  0  0  0  0  0  0  0  0  0
   -1.0845   -1.0397    0.0000 C   0  0  0  0  0  0  0  0  0  0  0  0
   -2.3849   -1.7872    0.0000 C   0  0  0  0  0  0  0  0  0  0  0  0
   -3.6825   -1.0348    0.0000 C   0  0  0  0  0  0  0  0  0  0  0  0
   -4.9802   -0.2824    0.0000 N   0  0  0  0  0  0  0  0  0  0  0  0
   -1.0817    0.4603    0.0000 C   0  0  0  0  0  0  0  0  0  0  0  0
   -2.3793    1.2128    0.0000 N   0  0  0  0  0  4  0  0  0  0  0  0
   -3.6797    0.4652    0.0000 O   0  0  0  0  0  0  0  0  0  0  0  0
   -2.3765    2.7128    0.0000 O   0  0  0  0  0  1  0  0  0  0  0  0
    0.2188    1.2079    0.0000 C   0  0  0  0  0  0  0  0  0  0  0  0
    1.5164    0.4555    0.0000 C   0  0  0  0  0  0  0  0  0  0  0  0
    2.8168    1.2031    0.0000 C   0  0  0  0  0  0  0  0  0  0  0  0
    4.1173    1.9507    0.0000 F   0  0  0  0  0  0  0  0  0  0  0  0
    3.5644   -0.0973    0.0000 F   0  0  0  0  0  0  0  0  0  0  0  0
    2.0692    2.5035    0.0000 F   0  0  0  0  0  0  0  0  0  0  0  0
  1  2  1  0
  2  3  1  0
  3  4  2  0
  4  5  1  0
  5  6  1  0
  6  7  1  0
  7  8  3  0
  5  9  2  0
  9 10  1  0
 10 11  2  0
 10 12  1  0
  9 13  1  0
 13 14  2  0
 14 15  1  0
 15 16  1  0
 15 17  1  0
 15 18  1  0
 14  3  1  0
M  CHG  2  10   1  12  -1
M  END
> <Identifier>
5-Methoxy-2-nitro-4-(trifluoromethyl) benzene acetonitrile

> <SkinReaction>
0

$$$$

     RDKit          2D

 14 15  0  0  0  0  0  0  0  0999 V2000
    1.7360    2.3345    0.0000 C   0  0  0  0  0  0  0  0  0  0  0  0
    0.6432    1.3070    0.0000 C   0  0  0  0  0  0  0  0  0  0  0  0
   -0.7930    1.7396    0.0000 C   0  0  0  0  0  0  0  0  0  0  0  0
   -1.8858    0.7121    0.0000 C   0  0  0  0  0  0  0  0  0  0  0  0
   -1.5424   -0.7480    0.0000 C   0  0  0  0  0  0  0  0  0  0  0  0
   -0.1061   -1.1807    0.0000 C   0  0  0  0  0  0  0  0  0  0  0  0
    0.9867   -0.1531    0.0000 C   0  0  0  0  0  0  0  0  0  0  0  0
    2.4229   -0.5858    0.0000 C   0  0  0  0  0  0  0  0  0  0  0  0
    3.8592   -1.0184    0.0000 F   0  0  0  0  0  0  0  0  0  0  0  0
    1.9903   -2.0220    0.0000 F   0  0  0  0  0  0  0  0  0  0  0  0
    2.8556    0.8505    0.0000 F   0  0  0  0  0  0  0  0  0  0  0  0
   -2.8249   -1.5259    0.0000 N   0  0  0  0  0  0  0  0  0  0  0  0
   -3.9610   -0.5465    0.0000 C   0  0  0  0  0  0  0  0  0  0  0  0
   -3.3806    0.8367    0.0000 C   0  0  0  0  0  0  0  0  0  0  0  0
  1  2  1  0
  2  3  2  0
  3  4  1  0
  4  5  2  0
  5  6  1  0
  6  7  2  0
  7  8  1  0
  8  9  1  0
  8 10  1  0
  8 11  1  0
  5 12  1  0
 12 13  1  0
 13 14  1  0
  7  2  1  0
 14  4  1  0
M  END
> <Identifier>
5-Methyl-6-(trifluoromethyl)indoline

> <SkinReaction>
0

$$$$

     RDKit          2D

  8  7  0  0  0  0  0  0  0  0999 V2000
    4.5553   -0.2480    0.0000 O   0  0  0  0  0  0  0  0  0  0  0  0
    3.2359    0.4655    0.0000 C   0  0  0  0  0  0  0  0  0  0  0  0
    1.9583   -0.3205    0.0000 C   0  0  0  0  0  0  0  0  0  0  0  0
    0.6388    0.3930    0.0000 C   0  0  0  0  0  0  0  0  0  0  0  0
   -0.6388   -0.3930    0.0000 C   0  0  0  0  0  0  0  0  0  0  0  0
   -1.9583    0.3205    0.0000 C   0  0  0  0  0  0  0  0  0  0  0  0
   -3.2359   -0.4655    0.0000 C   0  0  0  0  0  0  0  0  0  0  0  0
   -4.5553    0.2480    0.0000 Cl  0  0  0  0  0  0  0  0  0  0  0  0
  1  2  1  0
  2  3  1  0
  3  4  1  0
  4  5  1  0
  5  6  1  0
  6  7  1  0
  7  8  1  0
M  END
> <Identifier>
6-Chloro-1-hexanol

> <SkinReaction>
0

$$$$

     RDKit          2D

 27 29  0  0  0  0  0  0  0  0999 V2000
    2.4981   -3.7546    0.0000 C   0  0  0  0  0  0  0  0  0  0  0  0
    2.0836   -2.3130    0.0000 C   0  0  0  0  0  0  0  0  0  0  0  0
    0.1917   -1.4036    0.0000 C   0  0  0  0  0  0  0  0  0  0  0  0
    0.6551   -3.4509    0.0000 C   0  0  0  0  0  0  0  0  0  0  0  0
    0.6586   -0.5599    0.0000 C   0  0  0  0  0  0  0  0  0  0  0  0
    0.3922    0.3668    0.0000 C   0  0  0  0  0  0  0  0  0  0  0  0
    2.1130    1.7375    0.0000 O   0  0  0  0  0  0  0  0  0  0  0  0
    3.5090    1.1888    0.0000 C   0  0  0  0  0  0  0  0  0  0  0  0
    3.7317   -0.2946    0.0000 O   0  0  0  0  0  0  0  0  0  0  0  0
    4.6822    2.1234    0.0000 C   0  0  0  0  0  0  0  0  0  0  0  0
    6.0782    1.5746    0.0000 O   0  0  0  0  0  0  0  0  0  0  0  0
   -0.3727    1.5292    0.0000 C   0  0  0  0  0  0  0  0  0  0  0  0
   -0.2040    3.0197    0.0000 C   0  0  0  0  0  0  0  0  0  0  0  0
   -0.6747    0.7606    0.0000 C   0  0  0  0  0  0  0  0  0  0  0  0
    1.9095    0.4706    0.0000 C   0  0  0  0  0  0  0  0  0  0  0  0
   -0.9793   -0.0411    0.0000 C   0  0  0  0  0  0  0  0  0  0  0  0
   -1.7204   -0.1256    0.0000 C   0  0  0  0  0  0  0  0  0  0  0  0
   -2.5406   -0.1977    0.0000 C   0  0  0  0  0  0  0  0  0  0  0  0
   -4.0133    0.0875    0.0000 C   0  0  0  0  0  0  0  0  0  0  0  0
   -4.1971    1.5761    0.0000 C   0  0  0  0  0  0  0  0  0  0  0  0
   -2.8381    2.2110    0.0000 C   0  0  0  0  0  0  0  0  0  0  0  0
   -2.5529    3.6837    0.0000 O   0  0  0  0  0  0  0  0  0  0  0  0
   -1.8143    1.1147    0.0000 C   0  0  0  0  0  0  0  0  0  0  0  0
   -1.5786   -1.2032    0.0000 C   0  0  0  0  0  0  0  0  0  0  0  0
   -3.2994   -2.5739    0.0000 C   0  0  0  0  0  0  0  0  0  0  0  0
   -0.7350   -1.6700    0.0000 C   0  0  0  0  0  0  0  0  0  0  0  0
   -0.9825   -3.8561    0.0000 O   0  0  0  0  0  0  0  0  0  0  0  0
  1  2  2  0
  2  3  1  0
  3  4  1  0
  3  5  1  0
  5  6  1  0
  6  7  1  0
  7  8  1  0
  8  9  2  0
  8 10  1  0
 10 11  1  0
  6 12  1  0
 12 13  1  0
 12 14  1  0
 14 15  1  0
 14 16  1  0
 16 17  1  0
 17 18  1  0
 18 19  1  0
 19 20  1  0
 20 21  1  0
 21 22  2  0
 21 23  1  0
 18 24  1  0
 24 25  1  0
 24 26  1  0
 26 27  1  0
 26  3  1  0
 23 12  1  0
 23 18  1  0
M  END
> <Identifier>
6-Ethenyldeca-hydro-5-hydroxy-4,6,9,10-tetramethyl-1-oxo-3a,9-propano-3ah-cyclopentacyclo-octen-8-yl [[(3-exo)-8-methyl-8-azabicyclo-[3.2.1]oct-3-yl]thio]-acetate

> <SkinReaction>
0

$$$$

     RDKit          2D

 12 13  0  0  0  0  0  0  0  0999 V2000
   -1.4239   -2.6758    0.0000 O   0  0  0  0  0  0  0  0  0  0  0  0
   -1.4757   -1.1767    0.0000 C   0  0  0  0  0  0  0  0  0  0  0  0
   -2.7999   -0.4721    0.0000 N   0  0  0  0  0  0  0  0  0  0  0  0
   -2.8518    1.0270    0.0000 C   0  0  0  0  0  0  0  0  0  0  0  0
   -1.5795    1.8215    0.0000 N   0  0  0  0  0  0  0  0  0  0  0  0
   -0.2553    1.1168    0.0000 C   0  0  0  0  0  0  0  0  0  0  0  0
    1.0170    1.9113    0.0000 C   0  0  0  0  0  0  0  0  0  0  0  0
    2.3412    1.2067    0.0000 C   0  0  0  0  0  0  0  0  0  0  0  0
    2.3931   -0.2924    0.0000 C   0  0  0  0  0  0  0  0  0  0  0  0
    3.7173   -0.9971    0.0000 I   0  0  0  0  0  0  0  0  0  0  0  0
    1.1208   -1.0869    0.0000 C   0  0  0  0  0  0  0  0  0  0  0  0
   -0.2034   -0.3823    0.0000 C   0  0  0  0  0  0  0  0  0  0  0  0
  1  2  2  0
  2  3  1  0
  3  4  1  0
  4  5  2  0
  5  6  1  0
  6  7  2  0
  7  8  1  0
  8  9  2  0
  9 10  1  0
  9 11  1  0
 11 12  2  0
 12  2  1  0
 12  6  1  0
M  END
> <Identifier>
6-Iodo-quinazolin-4-ol

> <SkinReaction>
0

$$$$

     RDKit          2D

 14 15  0  0  0  0  0  0  0  0999 V2000
   -4.9331    0.2848    0.0000 C   0  0  0  0  0  0  0  0  0  0  0  0
   -3.7658   -0.6572    0.0000 O   0  0  0  0  0  0  0  0  0  0  0  0
   -2.3664   -0.1173    0.0000 C   0  0  0  0  0  0  0  0  0  0  0  0
   -2.1342    1.3646    0.0000 C   0  0  0  0  0  0  0  0  0  0  0  0
   -0.7347    1.9045    0.0000 C   0  0  0  0  0  0  0  0  0  0  0  0
    0.4326    0.9625    0.0000 C   0  0  0  0  0  0  0  0  0  0  0  0
    1.8320    1.5024    0.0000 N   0  0  0  0  0  0  0  0  0  0  0  0
    2.9993    0.5604    0.0000 C   0  0  0  0  0  0  0  0  0  0  0  0
    4.3988    1.1003    0.0000 O   0  0  0  0  0  0  0  0  0  0  0  0
    2.7672   -0.9215    0.0000 C   0  0  0  0  0  0  0  0  0  0  0  0
    1.3677   -1.4614    0.0000 C   0  0  0  0  0  0  0  0  0  0  0  0
    1.1355   -2.9434    0.0000 C   0  0  0  0  0  0  0  0  0  0  0  0
    0.2004   -0.5194    0.0000 C   0  0  0  0  0  0  0  0  0  0  0  0
   -1.1991   -1.0593    0.0000 C   0  0  0  0  0  0  0  0  0  0  0  0
  1  2  1  0
  2  3  1  0
  3  4  2  0
  4  5  1  0
  5  6  2  0
  6  7  1  0
  7  8  1  0
  8  9  2  0
  8 10  1  0
 10 11  2  0
 11 12  1  0
 11 13  1  0
 13 14  2  0
 14  3  1  0
 13  6  1  0
M  END
> <Identifier>
6-Methoxy-4-methyl-2(1H)-quinolinone

> <SkinReaction>
0

$$$$

     RDKit          2D

 14 15  0  0  0  0  0  0  0  0999 V2000
   -3.9522    1.6470    0.0000 C   0  0  0  0  0  0  0  0  0  0  0  0
   -3.5362    0.2059    0.0000 O   0  0  0  0  0  0  0  0  0  0  0  0
   -2.0801   -0.1544    0.0000 C   0  0  0  0  0  0  0  0  0  0  0  0
   -1.6641   -1.5956    0.0000 C   0  0  0  0  0  0  0  0  0  0  0  0
   -0.2080   -1.9559    0.0000 C   0  0  0  0  0  0  0  0  0  0  0  0
    0.2080   -3.3970    0.0000 N   0  0  0  0  0  0  0  0  0  0  0  0
    0.8321   -0.8750    0.0000 C   0  0  0  0  0  0  0  0  0  0  0  0
    2.2881   -1.2353    0.0000 N   0  0  0  0  0  0  0  0  0  0  0  0
    3.3282   -0.1544    0.0000 C   0  0  0  0  0  0  0  0  0  0  0  0
    2.9122    1.2867    0.0000 C   0  0  0  0  0  0  0  0  0  0  0  0
    1.4561    1.6470    0.0000 C   0  0  0  0  0  0  0  0  0  0  0  0
    1.0401    3.0882    0.0000 C   0  0  0  0  0  0  0  0  0  0  0  0
    0.4160    0.5662    0.0000 C   0  0  0  0  0  0  0  0  0  0  0  0
   -1.0401    0.9265    0.0000 C   0  0  0  0  0  0  0  0  0  0  0  0
  1  2  1  0
  2  3  1  0
  3  4  2  0
  4  5  1  0
  5  6  1  0
  5  7  2  0
  7  8  1  0
  8  9  2  0
  9 10  1  0
 10 11  2  0
 11 12  1  0
 11 13  1  0
 13 14  2  0
 14  3  1  0
 13  7  1  0
M  END
> <Identifier>
6-Methoxy-4-methyl-8-quinolinamine

> <SkinReaction>
0

$$$$

     RDKit          2D

 12 13  0  0  0  0  0  0  0  0999 V2000
   -4.1363   -0.5730    0.0000 C   0  0  0  0  0  0  0  0  0  0  0  0
   -2.7006   -0.1386    0.0000 C   0  0  0  0  0  0  0  0  0  0  0  0
   -2.3590    1.3220    0.0000 C   0  0  0  0  0  0  0  0  0  0  0  0
   -0.9233    1.7564    0.0000 C   0  0  0  0  0  0  0  0  0  0  0  0
    0.1708    0.7303    0.0000 C   0  0  0  0  0  0  0  0  0  0  0  0
    1.6065    1.1647    0.0000 O   0  0  0  0  0  0  0  0  0  0  0  0
    2.7006    0.1386    0.0000 C   0  0  0  0  0  0  0  0  0  0  0  0
    4.1363    0.5730    0.0000 O   0  0  0  0  0  0  0  0  0  0  0  0
    2.3590   -1.3220    0.0000 C   0  0  0  0  0  0  0  0  0  0  0  0
    0.9233   -1.7564    0.0000 C   0  0  0  0  0  0  0  0  0  0  0  0
   -0.1708   -0.7303    0.0000 C   0  0  0  0  0  0  0  0  0  0  0  0
   -1.6065   -1.1647    0.0000 C   0  0  0  0  0  0  0  0  0  0  0  0
  1  2  1  0
  2  3  2  0
  3  4  1  0
  4  5  2  0
  5  6  1  0
  6  7  1  0
  7  8  2  0
  7  9  1  0
  9 10  2  0
 10 11  1  0
 11 12  2  0
 12  2  1  0
 11  5  1  0
M  END
> <Identifier>
6-Methylcoumarin

> <SkinReaction>
0

$$$$

     RDKit          2D

 39 43  0  0  0  0  0  0  0  0999 V2000
   -9.1324    3.8207    0.0000 C   0  0  0  0  0  0  0  0  0  0  0  0
   -9.3132    2.3317    0.0000 O   0  0  0  0  0  0  0  0  0  0  0  0
   -8.1140    1.4306    0.0000 C   0  0  0  0  0  0  0  0  0  0  0  0
   -6.7340    2.0186    0.0000 C   0  0  0  0  0  0  0  0  0  0  0  0
   -5.5348    1.1175    0.0000 C   0  0  0  0  0  0  0  0  0  0  0  0
   -5.7156   -0.3716    0.0000 C   0  0  0  0  0  0  0  0  0  0  0  0
   -4.5164   -1.2727    0.0000 N   0  0  0  0  0  0  0  0  0  0  0  0
   -3.1365   -0.6847    0.0000 C   0  0  0  0  0  0  0  0  0  0  0  0
   -1.9373   -1.5858    0.0000 C   0  0  0  0  0  0  0  0  0  0  0  0
   -0.5573   -0.9978    0.0000 C   0  0  0  0  0  0  0  0  0  0  0  0
   -0.3766    0.4913    0.0000 C   0  0  0  0  0  0  0  0  0  0  0  0
    1.0034    1.0793    0.0000 C   0  0  0  0  0  0  0  0  0  0  0  0
    2.2026    0.1782    0.0000 C   0  0  0  0  0  0  0  0  0  0  0  0
    3.5825    0.7661    0.0000 N   0  0  0  0  0  0  0  0  0  0  0  0
    4.7817   -0.1349    0.0000 C   0  0  0  0  0  0  0  0  0  0  0  0
    6.1617    0.4530    0.0000 C   0  0  0  0  0  0  0  0  0  0  0  0
    6.3425    1.9421    0.0000 O   0  0  0  0  0  0  0  0  0  0  0  0
    7.3609   -0.4480    0.0000 C   0  0  0  0  0  0  0  0  0  0  0  0
    7.1801   -1.9371    0.0000 C   0  0  0  0  0  0  0  0  0  0  0  0
    8.3793   -2.8382    0.0000 C   0  0  0  0  0  0  0  0  0  0  0  0
    9.7592   -2.2502    0.0000 C   0  0  0  0  0  0  0  0  0  0  0  0
   10.9584   -3.1513    0.0000 O   0  0  0  0  0  0  0  0  0  0  0  0
    9.9400   -0.7611    0.0000 C   0  0  0  0  0  0  0  0  0  0  0  0
   11.3200   -0.1732    0.0000 N   0  0  0  0  0  0  0  0  0  0  0  0
   11.5007    1.3159    0.0000 C   0  0  0  0  0  0  0  0  0  0  0  0
   12.8807    1.9039    0.0000 O   0  0  0  0  0  0  0  0  0  0  0  0
   10.3015    2.2170    0.0000 C   0  0  0  0  0  0  0  0  0  0  0  0
    8.9216    1.6290    0.0000 C   0  0  0  0  0  0  0  0  0  0  0  0
    8.7408    0.1399    0.0000 C   0  0  0  0  0  0  0  0  0  0  0  0
   -1.5757    1.3924    0.0000 C   0  0  0  0  0  0  0  0  0  0  0  0
   -2.9557    0.8044    0.0000 C   0  0  0  0  0  0  0  0  0  0  0  0
   -7.0956   -0.9596    0.0000 C   0  0  0  0  0  0  0  0  0  0  0  0
   -8.2947   -0.0585    0.0000 C   0  0  0  0  0  0  0  0  0  0  0  0
   -9.6747   -0.6465    0.0000 C   0  0  0  0  0  0  0  0  0  0  0  0
  -10.8739    0.2546    0.0000 C   0  0  0  0  0  0  0  0  0  0  0  0
  -12.2538   -0.3334    0.0000 C   0  0  0  0  0  0  0  0  0  0  0  0
  -12.4346   -1.8224    0.0000 C   0  0  0  0  0  0  0  0  0  0  0  0
  -11.2354   -2.7235    0.0000 C   0  0  0  0  0  0  0  0  0  0  0  0
   -9.8555   -2.1355    0.0000 C   0  0  0  0  0  0  0  0  0  0  0  0
  1  2  1  0
  2  3  1  0
  3  4  2  0
  4  5  1  0
  5  6  2  0
  6  7  1  0
  7  8  1  0
  8  9  2  0
  9 10  1  0
 10 11  2  0
 11 12  1  0
 12 13  1  0
 13 14  1  0
 14 15  1  0
 15 16  1  0
 16 17  1  0
 16 18  1  0
 18 19  2  0
 19 20  1  0
 20 21  2  0
 21 22  1  0
 21 23  1  0
 23 24  1  0
 24 25  1  0
 25 26  2  0
 25 27  1  0
 27 28  2  0
 28 29  1  0
 11 30  1  0
 30 31  2  0
  6 32  1  0
 32 33  2  0
 33 34  1  0
 34 35  2  0
 35 36  1  0
 36 37  2  0
 37 38  1  0
 38 39  2  0
 33  3  1  0
 39 34  1  0
 31  8  1  0
 29 18  1  0
 29 23  2  0
M  END
> <Identifier>
8-Hydroxy-5-{1-hydroxy-2-[(2-{4-[(4-methoxy-3-phenylphenyl)amino]phenyl}ethyl)amino]ethyl}-1,2-dihydroquinolin-2-one

> <SkinReaction>
0

$$$$

     RDKit          2D

 10  9  0  0  0  0  0  0  0  0999 V2000
    3.4483   -1.4737    0.0000 O   0  0  0  0  0  0  0  0  0  0  0  0
    3.2691    0.0155    0.0000 C   0  0  0  0  0  0  0  0  0  0  0  0
    4.4693    0.9153    0.0000 O   0  0  0  0  0  0  0  0  0  0  0  0
    1.8898    0.6050    0.0000 C   0  0  0  0  0  0  0  0  0  0  0  0
    0.6897   -0.2947    0.0000 C   0  0  0  0  0  0  0  0  0  0  0  0
   -0.6897    0.2947    0.0000 C   0  0  0  0  0  0  0  0  0  0  0  0
   -1.8898   -0.6050    0.0000 C   0  0  0  0  0  0  0  0  0  0  0  0
   -3.2691   -0.0155    0.0000 C   0  0  0  0  0  0  0  0  0  0  0  0
   -3.4483    1.4737    0.0000 O   0  0  0  0  0  0  0  0  0  0  0  0
   -4.4693   -0.9153    0.0000 O   0  0  0  0  0  0  0  0  0  0  0  0
  1  2  2  0
  2  3  1  0
  2  4  1  0
  4  5  1  0
  5  6  1  0
  6  7  1  0
  7  8  1  0
  8  9  2  0
  8 10  1  0
M  END
> <Identifier>
Adipic acid

> <SkinReaction>
0

$$$$

     RDKit          2D

 10 10  0  0  0  0  0  0  0  0999 V2000
    0.4166   -2.3203    0.0000 N   0  0  0  0  0  0  0  0  0  0  0  0
   -0.3975   -1.0604    0.0000 C   0  0  0  0  0  0  0  0  0  0  0  0
   -1.8956   -1.1355    0.0000 C   0  0  0  0  0  0  0  0  0  0  0  0
   -2.7096    0.1244    0.0000 C   0  0  0  0  0  0  0  0  0  0  0  0
   -2.0255    1.4594    0.0000 C   0  0  0  0  0  0  0  0  0  0  0  0
   -0.5274    1.5344    0.0000 C   0  0  0  0  0  0  0  0  0  0  0  0
    0.2866    0.2745    0.0000 C   0  0  0  0  0  0  0  0  0  0  0  0
    1.7848    0.3495    0.0000 C   0  0  0  0  0  0  0  0  0  0  0  0
    2.4688    1.6844    0.0000 O   0  0  0  0  0  0  0  0  0  0  0  0
    2.5988   -0.9104    0.0000 O   0  0  0  0  0  0  0  0  0  0  0  0
  1  2  1  0
  2  3  2  0
  3  4  1  0
  4  5  2  0
  5  6  1  0
  6  7  2  0
  7  8  1  0
  8  9  2  0
  8 10  1  0
  7  2  1  0
M  END
> <Identifier>
Anthranilic acid

> <SkinReaction>
0

$$$$

     RDKit          2D

 14 14  0  0  0  0  0  0  0  0999 V2000
   -4.5211   -2.4395    0.0000 C   0  0  0  0  0  0  0  0  0  0  0  0
   -3.5928   -1.2613    0.0000 C   0  0  0  0  0  0  0  0  0  0  0  0
   -2.1082   -1.4762    0.0000 N   0  0  0  0  0  0  0  0  0  0  0  0
   -1.1799   -0.2980    0.0000 C   0  0  0  0  0  0  0  0  0  0  0  0
   -1.7360    1.0951    0.0000 N   0  0  0  0  0  0  0  0  0  0  0  0
   -0.8076    2.2733    0.0000 C   0  0  0  0  0  0  0  0  0  0  0  0
   -1.3638    3.6664    0.0000 Cl  0  0  0  0  0  0  0  0  0  0  0  0
    0.6769    2.0584    0.0000 N   0  0  0  0  0  0  0  0  0  0  0  0
    1.2330    0.6653    0.0000 C   0  0  0  0  0  0  0  0  0  0  0  0
    2.7176    0.4504    0.0000 N   0  0  0  0  0  0  0  0  0  0  0  0
    3.2737   -0.9427    0.0000 C   0  0  0  0  0  0  0  0  0  0  0  0
    4.7582   -1.1576    0.0000 C   0  0  0  0  0  0  0  0  0  0  0  0
    2.3453   -2.1209    0.0000 C   0  0  0  0  0  0  0  0  0  0  0  0
    0.3047   -0.5129    0.0000 N   0  0  0  0  0  0  0  0  0  0  0  0
  1  2  1  0
  2  3  1  0
  3  4  1  0
  4  5  2  0
  5  6  1  0
  6  7  1  0
  6  8  2  0
  8  9  1  0
  9 10  1  0
 10 11  1  0
 11 12  1  0
 11 13  1  0
  9 14  2  0
 14  4  1  0
M  END
> <Identifier>
Atrazine

> <SkinReaction>
0

$$$$

     RDKit          2D

  8  8  0  0  0  0  0  0  0  0999 V2000
   -3.0851    0.4695    0.0000 O   0  0  0  0  0  0  0  0  0  0  0  0
   -2.0677   -0.6327    0.0000 C   0  0  0  0  0  0  0  0  0  0  0  0
   -0.6045   -0.3028    0.0000 C   0  0  0  0  0  0  0  0  0  0  0  0
   -0.1586    1.1294    0.0000 C   0  0  0  0  0  0  0  0  0  0  0  0
    1.3047    1.4594    0.0000 C   0  0  0  0  0  0  0  0  0  0  0  0
    2.3221    0.3572    0.0000 C   0  0  0  0  0  0  0  0  0  0  0  0
    1.8762   -1.0750    0.0000 C   0  0  0  0  0  0  0  0  0  0  0  0
    0.4129   -1.4050    0.0000 C   0  0  0  0  0  0  0  0  0  0  0  0
  1  2  2  0
  2  3  1  0
  3  4  2  0
  4  5  1  0
  5  6  2  0
  6  7  1  0
  7  8  2  0
  8  3  1  0
M  END
> <Identifier>
Benzaldehyde

> <SkinReaction>
0

$$$$

     RDKit          2D

 12 12  0  0  0  0  0  0  0  0999 V2000
   -4.8249    1.2570    0.0000 C   0  0  0  0  0  0  0  0  0  0  0  0
   -3.8110    0.1515    0.0000 C   0  0  0  0  0  0  0  0  0  0  0  0
   -2.3467    0.4768    0.0000 O   0  0  0  0  0  0  0  0  0  0  0  0
   -1.3329   -0.6287    0.0000 C   0  0  0  0  0  0  0  0  0  0  0  0
   -1.7834   -2.0595    0.0000 O   0  0  0  0  0  0  0  0  0  0  0  0
    0.1314   -0.3035    0.0000 C   0  0  0  0  0  0  0  0  0  0  0  0
    0.5819    1.1273    0.0000 C   0  0  0  0  0  0  0  0  0  0  0  0
    2.0462    1.4525    0.0000 C   0  0  0  0  0  0  0  0  0  0  0  0
    3.0601    0.3470    0.0000 C   0  0  0  0  0  0  0  0  0  0  0  0
    4.5244    0.6723    0.0000 N   0  0  0  0  0  0  0  0  0  0  0  0
    2.6096   -1.0837    0.0000 C   0  0  0  0  0  0  0  0  0  0  0  0
    1.1453   -1.4090    0.0000 C   0  0  0  0  0  0  0  0  0  0  0  0
  1  2  1  0
  2  3  1  0
  3  4  1  0
  4  5  2  0
  4  6  1  0
  6  7  2  0
  7  8  1  0
  8  9  2  0
  9 10  1  0
  9 11  1  0
 11 12  2  0
 12  6  1  0
M  END
> <Identifier>
Benzocaine

> <SkinReaction>
0

$$$$

     RDKit          2D

  5  4  0  0  0  0  0  0  0  0999 V2000
   -2.5981   -0.3000    0.0000 C   0  0  0  0  0  0  0  0  0  0  0  0
   -1.2990    0.4500    0.0000 C   0  0  0  0  0  0  0  0  0  0  0  0
    0.0000   -0.3000    0.0000 C   0  0  0  0  0  0  0  0  0  0  0  0
    1.2990    0.4500    0.0000 C   0  0  0  0  0  0  0  0  0  0  0  0
    2.5981   -0.3000    0.0000 Br  0  0  0  0  0  0  0  0  0  0  0  0
  1  2  1  0
  2  3  1  0
  3  4  1  0
  4  5  1  0
M  END
> <Identifier>
Bromobutane

> <SkinReaction>
0

$$$$

     RDKit          2D

 10  9  0  0  0  0  0  0  0  0999 V2000
   -5.8514   -0.2717    0.0000 C   0  0  0  0  0  0  0  0  0  0  0  0
   -4.5393    0.4553    0.0000 C   0  0  0  0  0  0  0  0  0  0  0  0
   -3.2537   -0.3176    0.0000 C   0  0  0  0  0  0  0  0  0  0  0  0
   -1.9416    0.4094    0.0000 C   0  0  0  0  0  0  0  0  0  0  0  0
   -0.6560   -0.3635    0.0000 C   0  0  0  0  0  0  0  0  0  0  0  0
    0.6560    0.3635    0.0000 C   0  0  0  0  0  0  0  0  0  0  0  0
    1.9416   -0.4094    0.0000 C   0  0  0  0  0  0  0  0  0  0  0  0
    3.2537    0.3176    0.0000 C   0  0  0  0  0  0  0  0  0  0  0  0
    4.5393   -0.4553    0.0000 C   0  0  0  0  0  0  0  0  0  0  0  0
    5.8514    0.2717    0.0000 Br  0  0  0  0  0  0  0  0  0  0  0  0
  1  2  1  0
  2  3  1  0
  3  4  1  0
  4  5  1  0
  5  6  1  0
  6  7  1  0
  7  8  1  0
  8  9  1  0
  9 10  1  0
M  END
> <Identifier>
Bromononane

> <SkinReaction>
0

$$$$

     RDKit          2D

 10 10  0  0  0  0  0  0  0  0999 V2000
    3.7500    0.0000    0.0000 C   0  0  0  0  0  0  0  0  0  0  0  0
    2.2500   -0.0000    0.0000 C   0  0  0  0  0  0  0  0  0  0  0  0
    1.5000   -1.2990    0.0000 C   0  0  0  0  0  0  0  0  0  0  0  0
   -0.0000   -1.2990    0.0000 C   0  0  0  0  0  0  0  0  0  0  0  0
   -0.7500    0.0000    0.0000 C   0  0  0  0  0  0  0  0  0  0  0  0
   -2.2500    0.0000    0.0000 C   0  0  0  0  0  0  0  0  0  0  0  0
   -3.0000    1.2990    0.0000 C   0  0  0  0  0  0  0  0  0  0  0  0
   -3.0000   -1.2990    0.0000 C   0  0  0  0  0  0  0  0  0  0  0  0
    0.0000    1.2990    0.0000 C   0  0  0  0  0  0  0  0  0  0  0  0
    1.5000    1.2990    0.0000 C   0  0  0  0  0  0  0  0  0  0  0  0
  1  2  2  0
  2  3  1  0
  3  4  1  0
  4  5  2  0
  5  6  1  0
  6  7  1  0
  6  8  1  0
  5  9  1  0
  9 10  1  0
 10  2  1  0
M  END
> <Identifier>
b-Terpinene

> <SkinReaction>
0

$$$$

     RDKit          2D

  5  4  0  0  0  0  0  0  0  0999 V2000
   -2.5981   -0.3000    0.0000 C   0  0  0  0  0  0  0  0  0  0  0  0
   -1.2990    0.4500    0.0000 C   0  0  0  0  0  0  0  0  0  0  0  0
    0.0000   -0.3000    0.0000 C   0  0  0  0  0  0  0  0  0  0  0  0
    1.2990    0.4500    0.0000 C   0  0  0  0  0  0  0  0  0  0  0  0
    2.5981   -0.3000    0.0000 O   0  0  0  0  0  0  0  0  0  0  0  0
  1  2  1  0
  2  3  1  0
  3  4  1  0
  4  5  1  0
M  END
> <Identifier>
Butanol

> <SkinReaction>
0

$$$$

     RDKit          2D

  7  7  0  0  0  0  0  0  0  0999 V2000
    2.5714    0.0000    0.0000 Cl  0  0  0  0  0  0  0  0  0  0  0  0
    1.0714   -0.0000    0.0000 C   0  0  0  0  0  0  0  0  0  0  0  0
    0.3214   -1.2990    0.0000 C   0  0  0  0  0  0  0  0  0  0  0  0
   -1.1786   -1.2990    0.0000 C   0  0  0  0  0  0  0  0  0  0  0  0
   -1.9286    0.0000    0.0000 C   0  0  0  0  0  0  0  0  0  0  0  0
   -1.1786    1.2990    0.0000 C   0  0  0  0  0  0  0  0  0  0  0  0
    0.3214    1.2990    0.0000 C   0  0  0  0  0  0  0  0  0  0  0  0
  1  2  1  0
  2  3  2  0
  3  4  1  0
  4  5  2  0
  5  6  1  0
  6  7  2  0
  7  2  1  0
M  END
> <Identifier>
Chlorobenzene

> <SkinReaction>
0

$$$$

     RDKit          2D

 10  9  0  0  0  0  0  0  0  0999 V2000
   -5.8514   -0.2717    0.0000 C   0  0  0  0  0  0  0  0  0  0  0  0
   -4.5393    0.4553    0.0000 C   0  0  0  0  0  0  0  0  0  0  0  0
   -3.2537   -0.3176    0.0000 C   0  0  0  0  0  0  0  0  0  0  0  0
   -1.9416    0.4094    0.0000 C   0  0  0  0  0  0  0  0  0  0  0  0
   -0.6560   -0.3635    0.0000 C   0  0  0  0  0  0  0  0  0  0  0  0
    0.6560    0.3635    0.0000 C   0  0  0  0  0  0  0  0  0  0  0  0
    1.9416   -0.4094    0.0000 C   0  0  0  0  0  0  0  0  0  0  0  0
    3.2537    0.3176    0.0000 C   0  0  0  0  0  0  0  0  0  0  0  0
    4.5393   -0.4553    0.0000 C   0  0  0  0  0  0  0  0  0  0  0  0
    5.8514    0.2717    0.0000 Cl  0  0  0  0  0  0  0  0  0  0  0  0
  1  2  1  0
  2  3  1  0
  3  4  1  0
  4  5  1  0
  5  6  1  0
  6  7  1  0
  7  8  1  0
  8  9  1  0
  9 10  1  0
M  END
> <Identifier>
Chlorononane

> <SkinReaction>
0

$$$$

     RDKit          2D

 52 54  0  0  0  0  0  0  0  0999 V2000
   -5.6690   -4.0811    0.0000 C   0  0  0  0  0  0  0  0  0  0  0  0
   -4.3470   -4.7898    0.0000 C   0  0  0  0  0  0  0  0  0  0  0  0
   -3.0722   -3.9993    0.0000 C   0  0  0  0  0  0  0  0  0  0  0  0
   -3.5593   -2.5806    0.0000 O   0  0  0  0  0  0  0  0  0  0  0  0
   -3.3826   -1.0910    0.0000 C   0  0  0  0  0  0  0  0  0  0  0  0
   -4.7955   -0.5873    0.0000 O   0  0  0  0  0  0  0  0  0  0  0  0
   -2.5771    0.1744    0.0000 C   0  0  0  0  0  0  0  0  0  0  0  0
   -3.7302    0.8764    0.0000 C   0  0  0  0  0  0  0  0  0  0  0  0
   -1.3023    0.9649    0.0000 C   0  0  0  0  0  0  0  0  0  0  0  0
   -1.7894    2.3836    0.0000 O   0  0  0  0  0  0  0  0  0  0  0  0
   -3.2616    2.6712    0.0000 C   0  0  0  0  0  0  0  0  0  0  0  0
   -3.7486    4.0899    0.0000 C   0  0  0  0  0  0  0  0  0  0  0  0
   -5.2208    4.3774    0.0000 C   0  0  0  0  0  0  0  0  0  0  0  0
   -6.5059    5.1511    0.0000 C   0  0  0  0  0  0  0  0  0  0  0  0
   -4.6820    5.7773    0.0000 O   0  0  0  0  0  0  0  0  0  0  0  0
   -5.6249    6.9439    0.0000 C   0  0  0  0  0  0  0  0  0  0  0  0
   -6.2059    3.2462    0.0000 C   0  0  0  0  0  0  0  0  0  0  0  0
   -7.6781    3.5338    0.0000 O   0  0  0  0  0  0  0  0  0  0  0  0
   -5.7189    1.8275    0.0000 C   0  0  0  0  0  0  0  0  0  0  0  0
   -6.7040    0.6963    0.0000 C   0  0  0  0  0  0  0  0  0  0  0  0
   -4.2467    1.5400    0.0000 O   0  0  0  0  0  0  0  0  0  0  0  0
    0.1892    1.1241    0.0000 C   0  0  0  0  0  0  0  0  0  0  0  0
    0.3659    2.6136    0.0000 C   0  0  0  0  0  0  0  0  0  0  0  0
    1.6021    0.6203    0.0000 C   0  0  0  0  0  0  0  0  0  0  0  0
    2.4076    1.8857    0.0000 O   0  0  0  0  0  0  0  0  0  0  0  0
    3.9062    1.8208    0.0000 C   0  0  0  0  0  0  0  0  0  0  0  0
    4.5993    0.4905    0.0000 O   0  0  0  0  0  0  0  0  0  0  0  0
    6.0979    0.4256    0.0000 C   0  0  0  0  0  0  0  0  0  0  0  0
    6.7910   -0.9047    0.0000 C   0  0  0  0  0  0  0  0  0  0  0  0
    6.9034    1.6910    0.0000 C   0  0  0  0  0  0  0  0  0  0  0  0
    6.2103    3.0212    0.0000 C   0  0  0  0  0  0  0  0  0  0  0  0
    7.0158    4.2866    0.0000 N   0  0  0  0  0  0  0  0  0  0  0  0
    8.5144    4.2217    0.0000 C   0  0  0  0  0  0  0  0  0  0  0  0
    6.3227    5.6169    0.0000 C   0  0  0  0  0  0  0  0  0  0  0  0
    4.7117    3.0862    0.0000 C   0  0  0  0  0  0  0  0  0  0  0  0
    4.0186    4.4164    0.0000 O   0  0  0  0  0  0  0  0  0  0  0  0
    2.6565   -0.4466    0.0000 C   0  0  0  0  0  0  0  0  0  0  0  0
    3.2644    0.9247    0.0000 C   0  0  0  0  0  0  0  0  0  0  0  0
    4.1551   -0.5115    0.0000 O   0  0  0  0  0  0  0  0  0  0  0  0
    4.7332    0.0374    0.0000 C   0  0  0  0  0  0  0  0  0  0  0  0
    3.1436   -1.8653    0.0000 C   0  0  0  0  0  0  0  0  0  0  0  0
    2.9669   -3.3548    0.0000 C   0  0  0  0  0  0  0  0  0  0  0  0
    4.3797   -3.8586    0.0000 C   0  0  0  0  0  0  0  0  0  0  0  0
    2.1614   -4.6202    0.0000 C   0  0  0  0  0  0  0  0  0  0  0  0
    3.2157   -5.6871    0.0000 O   0  0  0  0  0  0  0  0  0  0  0  0
    0.8866   -5.4107    0.0000 C   0  0  0  0  0  0  0  0  0  0  0  0
    1.3737   -6.8295    0.0000 C   0  0  0  0  0  0  0  0  0  0  0  0
   -0.6049   -5.5699    0.0000 C   0  0  0  0  0  0  0  0  0  0  0  0
   -0.7817   -7.0595    0.0000 O   0  0  0  0  0  0  0  0  0  0  0  0
   -2.0178   -5.0662    0.0000 C   0  0  0  0  0  0  0  0  0  0  0  0
   -1.9706   -6.5654    0.0000 C   0  0  0  0  0  0  0  0  0  0  0  0
   -3.3962   -5.6579    0.0000 O   0  0  0  0  0  0  0  0  0  0  0  0
  1  2  1  0
  2  3  1  0
  3  4  1  0
  4  5  1  0
  5  6  2  0
  5  7  1  0
  7  8  1  0
  7  9  1  0
  9 10  1  0
 10 11  1  0
 11 12  1  0
 12 13  1  0
 13 14  1  0
 13 15  1  0
 15 16  1  0
 13 17  1  0
 17 18  1  0
 17 19  1  0
 19 20  1  0
 19 21  1  0
  9 22  1  0
 22 23  1  0
 22 24  1  0
 24 25  1  0
 25 26  1  0
 26 27  1  0
 27 28  1  0
 28 29  1  0
 28 30  1  0
 30 31  1  0
 31 32  1  0
 32 33  1  0
 32 34  1  0
 31 35  1  0
 35 36  1  0
 24 37  1  0
 37 38  1  0
 37 39  1  0
 39 40  1  0
 37 41  1  0
 41 42  1  0
 42 43  1  0
 42 44  1  0
 44 45  2  0
 44 46  1  0
 46 47  1  0
 46 48  1  0
 48 49  1  0
 48 50  1  0
 50 51  1  0
 50 52  1  0
 50  3  1  0
 21 11  1  0
 35 26  1  0
M  END
> <Identifier>
Clarithromycin

> <SkinReaction>
0

$$$$

     RDKit          2D

 11 12  0  0  0  0  0  0  0  0999 V2000
   -3.7110    0.7996    0.0000 O   0  0  0  0  0  0  0  0  0  0  0  0
   -2.3117    0.2594    0.0000 C   0  0  0  0  0  0  0  0  0  0  0  0
   -2.0798   -1.2225    0.0000 C   0  0  0  0  0  0  0  0  0  0  0  0
   -0.6805   -1.7627    0.0000 C   0  0  0  0  0  0  0  0  0  0  0  0
    0.4870   -0.8209    0.0000 C   0  0  0  0  0  0  0  0  0  0  0  0
    1.8864   -1.3611    0.0000 C   0  0  0  0  0  0  0  0  0  0  0  0
    3.0539   -0.4194    0.0000 C   0  0  0  0  0  0  0  0  0  0  0  0
    2.8220    1.0626    0.0000 C   0  0  0  0  0  0  0  0  0  0  0  0
    1.4227    1.6028    0.0000 C   0  0  0  0  0  0  0  0  0  0  0  0
    0.2552    0.6610    0.0000 C   0  0  0  0  0  0  0  0  0  0  0  0
   -1.1442    1.2012    0.0000 O   0  0  0  0  0  0  0  0  0  0  0  0
  1  2  2  0
  2  3  1  0
  3  4  2  0
  4  5  1  0
  5  6  2  0
  6  7  1  0
  7  8  2  0
  8  9  1  0
  9 10  2  0
 10 11  1  0
 11  2  1  0
 10  5  1  0
M  END
> <Identifier>
Coumarin

> <SkinReaction>
0

$$$$

     RDKit          2D

  8  8  0  0  0  0  0  0  0  0999 V2000
   -2.5981   -1.1250    0.0000 N   0  0  0  0  0  0  0  0  0  0  0  0
   -1.2990   -0.3750    0.0000 C   0  0  0  0  0  0  0  0  0  0  0  0
   -1.2990    1.1250    0.0000 C   0  0  0  0  0  0  0  0  0  0  0  0
    0.0000    1.8750    0.0000 C   0  0  0  0  0  0  0  0  0  0  0  0
    1.2990    1.1250    0.0000 N   0  0  0  0  0  0  0  0  0  0  0  0
    1.2990   -0.3750    0.0000 C   0  0  0  0  0  0  0  0  0  0  0  0
    2.5981   -1.1250    0.0000 O   0  0  0  0  0  0  0  0  0  0  0  0
   -0.0000   -1.1250    0.0000 N   0  0  0  0  0  0  0  0  0  0  0  0
  1  2  1  0
  2  3  1  0
  3  4  2  0
  4  5  1  0
  5  6  1  0
  6  7  2  0
  6  8  1  0
  8  2  2  0
M  END
> <Identifier>
Cytosine

> <SkinReaction>
0

$$$$

     RDKit          2D

 16 16  0  0  0  0  0  0  0  0999 V2000
   -5.2500   -1.7862    0.0000 C   0  0  0  0  0  0  0  0  0  0  0  0
   -3.7500   -1.7862    0.0000 C   0  0  0  0  0  0  0  0  0  0  0  0
   -3.0000   -0.4871    0.0000 O   0  0  0  0  0  0  0  0  0  0  0  0
   -1.5000   -0.4871    0.0000 C   0  0  0  0  0  0  0  0  0  0  0  0
   -0.7500   -1.7862    0.0000 O   0  0  0  0  0  0  0  0  0  0  0  0
   -0.7500    0.8119    0.0000 C   0  0  0  0  0  0  0  0  0  0  0  0
   -1.5000    2.1109    0.0000 C   0  0  0  0  0  0  0  0  0  0  0  0
   -0.7500    3.4100    0.0000 C   0  0  0  0  0  0  0  0  0  0  0  0
    0.7500    3.4100    0.0000 C   0  0  0  0  0  0  0  0  0  0  0  0
    1.5000    2.1109    0.0000 C   0  0  0  0  0  0  0  0  0  0  0  0
    0.7500    0.8119    0.0000 C   0  0  0  0  0  0  0  0  0  0  0  0
    1.5000   -0.4871    0.0000 C   0  0  0  0  0  0  0  0  0  0  0  0
    0.7500   -1.7862    0.0000 O   0  0  0  0  0  0  0  0  0  0  0  0
    3.0000   -0.4871    0.0000 O   0  0  0  0  0  0  0  0  0  0  0  0
    3.7500   -1.7862    0.0000 C   0  0  0  0  0  0  0  0  0  0  0  0
    5.2500   -1.7862    0.0000 C   0  0  0  0  0  0  0  0  0  0  0  0
  1  2  1  0
  2  3  1  0
  3  4  1  0
  4  5  2  0
  4  6  1  0
  6  7  2  0
  7  8  1  0
  8  9  2  0
  9 10  1  0
 10 11  2  0
 11 12  1  0
 12 13  2  0
 12 14  1  0
 14 15  1  0
 15 16  1  0
 11  6  1  0
M  END
> <Identifier>
Diethyl pthalate

> <SkinReaction>
0

$$$$

     RDKit          2D

 29 30  0  0  0  0  0  0  0  0999 V2000
    2.5910   -5.6299    0.0000 C   0  0  0  0  0  0  0  0  0  0  0  0
    1.2806   -4.8999    0.0000 O   0  0  0  0  0  0  0  0  0  0  0  0
    1.2575   -3.4001    0.0000 C   0  0  0  0  0  0  0  0  0  0  0  0
    2.5449   -2.6302    0.0000 O   0  0  0  0  0  0  0  0  0  0  0  0
   -0.0529   -2.6702    0.0000 C   0  0  0  0  0  0  0  0  0  0  0  0
   -0.0759   -1.1703    0.0000 C   0  0  0  0  0  0  0  0  0  0  0  0
   -1.3863   -0.4404    0.0000 C   0  0  0  0  0  0  0  0  0  0  0  0
   -2.1163   -1.7508    0.0000 C   0  0  0  0  0  0  0  0  0  0  0  0
   -2.8462   -3.0612    0.0000 N   0  0  0  0  0  0  0  0  0  0  0  0
   -2.6968    0.2896    0.0000 C   0  0  0  0  0  0  0  0  0  0  0  0
   -3.9841   -0.4803    0.0000 C   0  0  0  0  0  0  0  0  0  0  0  0
   -5.2945    0.2496    0.0000 C   0  0  0  0  0  0  0  0  0  0  0  0
   -5.3176    1.7494    0.0000 O   0  0  0  0  0  0  0  0  0  0  0  0
   -6.5819   -0.5203    0.0000 O   0  0  0  0  0  0  0  0  0  0  0  0
   -7.8923    0.2097    0.0000 C   0  0  0  0  0  0  0  0  0  0  0  0
   -0.6564    0.8700    0.0000 C   0  0  0  0  0  0  0  0  0  0  0  0
   -1.4263    2.1574    0.0000 C   0  0  0  0  0  0  0  0  0  0  0  0
   -0.6963    3.4678    0.0000 C   0  0  0  0  0  0  0  0  0  0  0  0
    0.8035    3.4909    0.0000 C   0  0  0  0  0  0  0  0  0  0  0  0
    1.5334    4.8013    0.0000 O   0  0  0  0  0  0  0  0  0  0  0  0
    3.0332    4.8243    0.0000 C   0  0  0  0  0  0  0  0  0  0  0  0
    1.5734    2.2035    0.0000 C   0  0  0  0  0  0  0  0  0  0  0  0
    3.0732    2.2266    0.0000 O   0  0  0  0  0  0  0  0  0  0  0  0
    3.8431    0.9392    0.0000 C   0  0  0  0  0  0  0  0  0  0  0  0
    5.3371    0.8054    0.0000 C   0  0  0  0  0  0  0  0  0  0  0  0
    5.6715   -0.6569    0.0000 C   0  0  0  0  0  0  0  0  0  0  0  0
    4.3841   -1.4268    0.0000 C   0  0  0  0  0  0  0  0  0  0  0  0
    3.2541   -0.4403    0.0000 C   0  0  0  0  0  0  0  0  0  0  0  0
    0.8434    0.8931    0.0000 C   0  0  0  0  0  0  0  0  0  0  0  0
  1  2  1  0
  2  3  1  0
  3  4  2  0
  3  5  1  0
  5  6  1  0
  6  7  1  0
  7  8  1  0
  8  9  3  0
  7 10  1  0
 10 11  1  0
 11 12  1  0
 12 13  2  0
 12 14  1  0
 14 15  1  0
  7 16  1  0
 16 17  2  0
 17 18  1  0
 18 19  2  0
 19 20  1  0
 20 21  1  0
 19 22  1  0
 22 23  1  0
 23 24  1  0
 24 25  1  0
 25 26  1  0
 26 27  1  0
 27 28  1  0
 22 29  2  0
 29 16  1  0
 28 24  1  0
M  END
> <Identifier>
Dimethyl 4-cyano-4-(3-cyclopentyloxy-4-methoxyphenyl)-pimelate

> <SkinReaction>
0

$$$$

     RDKit          2D

  6  5  0  0  0  0  0  0  0  0999 V2000
   -2.5981    0.0000    0.0000 C   0  0  0  0  0  0  0  0  0  0  0  0
   -1.2990    0.7500    0.0000 O   0  0  0  0  0  0  0  0  0  0  0  0
    0.0000   -0.0000    0.0000 C   0  0  0  0  0  0  0  0  0  0  0  0
    0.0000   -1.5000    0.0000 O   0  0  0  0  0  0  0  0  0  0  0  0
    1.2990    0.7500    0.0000 O   0  0  0  0  0  0  0  0  0  0  0  0
    2.5981   -0.0000    0.0000 C   0  0  0  0  0  0  0  0  0  0  0  0
  1  2  1  0
  2  3  1  0
  3  4  2  0
  3  5  1  0
  5  6  1  0
M  END
> <Identifier>
Dimethyl carbonate

> <SkinReaction>
0

$$$$

     RDKit          2D

 43 46  0  0  0  0  0  0  0  0999 V2000
   -5.9401   -5.3156    0.0000 C   0  0  0  0  0  0  0  0  0  0  0  0
   -4.4781   -4.9804    0.0000 C   0  0  0  0  0  0  0  0  0  0  0  0
   -4.0373   -3.5466    0.0000 O   0  0  0  0  0  0  0  0  0  0  0  0
   -2.5753   -3.2114    0.0000 C   0  0  0  0  0  0  0  0  0  0  0  0
   -1.5539   -4.3099    0.0000 O   0  0  0  0  0  0  0  0  0  0  0  0
   -2.1345   -1.7776    0.0000 C   0  0  0  0  0  0  0  0  0  0  0  0
   -3.1559   -0.6790    0.0000 N   0  0  0  0  0  0  0  0  0  0  0  0
   -4.6179   -1.0142    0.0000 O   0  0  0  0  0  0  0  0  0  0  0  0
   -5.6393    0.0844    0.0000 C   0  0  0  0  0  0  0  0  0  0  0  0
   -6.7379   -0.9370    0.0000 C   0  0  0  0  0  0  0  0  0  0  0  0
   -4.5407    1.1057    0.0000 C   0  0  0  0  0  0  0  0  0  0  0  0
   -6.6606    1.1829    0.0000 C   0  0  0  0  0  0  0  0  0  0  0  0
   -8.1227    0.8477    0.0000 O   0  0  0  0  0  0  0  0  0  0  0  0
   -6.2199    2.6167    0.0000 O   0  0  0  0  0  0  0  0  0  0  0  0
   -7.2412    3.7153    0.0000 C   0  0  0  0  0  0  0  0  0  0  0  0
   -6.1427    4.7366    0.0000 C   0  0  0  0  0  0  0  0  0  0  0  0
   -8.3398    2.6940    0.0000 C   0  0  0  0  0  0  0  0  0  0  0  0
   -8.2626    4.8139    0.0000 C   0  0  0  0  0  0  0  0  0  0  0  0
   -0.6725   -1.4424    0.0000 C   0  0  0  0  0  0  0  0  0  0  0  0
    0.4581   -2.4282    0.0000 C   0  0  0  0  0  0  0  0  0  0  0  0
    1.7450   -1.6575    0.0000 S   0  0  0  0  0  0  0  0  0  0  0  0
    1.4098   -0.1955    0.0000 C   0  0  0  0  0  0  0  0  0  0  0  0
    2.3956    0.9351    0.0000 N   0  0  0  0  0  0  0  0  0  0  0  0
    3.8676    0.6467    0.0000 C   0  0  0  0  0  0  0  0  0  0  0  0
    4.1560    2.1187    0.0000 C   0  0  0  0  0  0  0  0  0  0  0  0
    3.0255    3.1045    0.0000 C   0  0  0  0  0  0  0  0  0  0  0  0
    3.3139    4.5765    0.0000 C   0  0  0  0  0  0  0  0  0  0  0  0
    4.7329    5.0627    0.0000 C   0  0  0  0  0  0  0  0  0  0  0  0
    5.8635    4.0769    0.0000 C   0  0  0  0  0  0  0  0  0  0  0  0
    5.5751    2.6049    0.0000 C   0  0  0  0  0  0  0  0  0  0  0  0
    3.5792   -0.8253    0.0000 C   0  0  0  0  0  0  0  0  0  0  0  0
    4.7097   -1.8111    0.0000 C   0  0  0  0  0  0  0  0  0  0  0  0
    4.4213   -3.2832    0.0000 C   0  0  0  0  0  0  0  0  0  0  0  0
    3.0023   -3.7694    0.0000 C   0  0  0  0  0  0  0  0  0  0  0  0
    1.8717   -2.7836    0.0000 C   0  0  0  0  0  0  0  0  0  0  0  0
    2.1602   -1.3116    0.0000 C   0  0  0  0  0  0  0  0  0  0  0  0
    5.3396    0.3582    0.0000 C   0  0  0  0  0  0  0  0  0  0  0  0
    6.3254    1.4888    0.0000 C   0  0  0  0  0  0  0  0  0  0  0  0
    7.7974    1.2004    0.0000 C   0  0  0  0  0  0  0  0  0  0  0  0
    8.2836   -0.2187    0.0000 C   0  0  0  0  0  0  0  0  0  0  0  0
    7.2978   -1.3492    0.0000 C   0  0  0  0  0  0  0  0  0  0  0  0
    5.8258   -1.0608    0.0000 C   0  0  0  0  0  0  0  0  0  0  0  0
   -0.0843   -0.0625    0.0000 N   0  0  0  0  0  0  0  0  0  0  0  0
  1  2  1  0
  2  3  1  0
  3  4  1  0
  4  5  2  0
  4  6  1  0
  6  7  2  3
  7  8  1  0
  8  9  1  0
  9 10  1  0
  9 11  1  0
  9 12  1  0
 12 13  2  0
 12 14  1  0
 14 15  1  0
 15 16  1  0
 15 17  1  0
 15 18  1  0
  6 19  1  0
 19 20  2  0
 20 21  1  0
 21 22  1  0
 22 23  1  0
 23 24  1  0
 24 25  1  0
 25 26  2  0
 26 27  1  0
 27 28  2  0
 28 29  1  0
 29 30  2  0
 24 31  1  0
 31 32  2  0
 32 33  1  0
 33 34  2  0
 34 35  1  0
 35 36  2  0
 24 37  1  0
 37 38  2  0
 38 39  1  0
 39 40  2  0
 40 41  1  0
 41 42  2  0
 22 43  2  0
 43 19  1  0
 30 25  1  0
 36 31  1  0
 42 37  1  0
M  END
> <Identifier>
Ethyl (Z)-a-[[2-(tert-butoxy)-1,1-dimethyl-2-oxoethoxy]imino]-2-(tritylamino)thiazol-4-acetate

> <SkinReaction>
0

$$$$

     RDKit          2D

 10 10  0  0  0  0  0  0  0  0999 V2000
   -4.2065    0.9843    0.0000 C   0  0  0  0  0  0  0  0  0  0  0  0
   -3.0993   -0.0277    0.0000 C   0  0  0  0  0  0  0  0  0  0  0  0
   -1.6693    0.4252    0.0000 O   0  0  0  0  0  0  0  0  0  0  0  0
   -0.5621   -0.5868    0.0000 C   0  0  0  0  0  0  0  0  0  0  0  0
   -0.8849   -2.0516    0.0000 O   0  0  0  0  0  0  0  0  0  0  0  0
    0.8679   -0.1339    0.0000 C   0  0  0  0  0  0  0  0  0  0  0  0
    2.0749   -1.0246    0.0000 N   0  0  0  0  0  0  0  0  0  0  0  0
    3.2949   -0.1520    0.0000 N   0  0  0  0  0  0  0  0  0  0  0  0
    2.8421    1.2780    0.0000 C   0  0  0  0  0  0  0  0  0  0  0  0
    1.3421    1.2892    0.0000 N   0  0  0  0  0  0  0  0  0  0  0  0
  1  2  1  0
  2  3  1  0
  3  4  1  0
  4  5  2  0
  4  6  1  0
  6  7  2  0
  7  8  1  0
  8  9  2  0
  9 10  1  0
 10  6  1  0
M  END
> <Identifier>
Ethyl 1H-1,2,4-triazole-5-carboxylate

> <SkinReaction>
0

$$$$

     RDKit          2D

 17 17  0  0  0  0  0  0  0  0999 V2000
   -6.5349    1.5878    0.0000 C   0  0  0  0  0  0  0  0  0  0  0  0
   -5.4633    0.5382    0.0000 C   0  0  0  0  0  0  0  0  0  0  0  0
   -4.0185    0.9413    0.0000 O   0  0  0  0  0  0  0  0  0  0  0  0
   -2.9470   -0.1083    0.0000 C   0  0  0  0  0  0  0  0  0  0  0  0
   -3.3202   -1.5612    0.0000 O   0  0  0  0  0  0  0  0  0  0  0  0
   -1.5022    0.2948    0.0000 C   0  0  0  0  0  0  0  0  0  0  0  0
   -0.4306   -0.7548    0.0000 C   0  0  0  0  0  0  0  0  0  0  0  0
   -0.8039   -2.2076    0.0000 O   0  0  0  0  0  0  0  0  0  0  0  0
    1.0142   -0.3517    0.0000 C   0  0  0  0  0  0  0  0  0  0  0  0
    1.3874    1.1012    0.0000 C   0  0  0  0  0  0  0  0  0  0  0  0
    2.8322    1.5043    0.0000 C   0  0  0  0  0  0  0  0  0  0  0  0
    3.2055    2.9571    0.0000 F   0  0  0  0  0  0  0  0  0  0  0  0
    3.9038    0.4547    0.0000 C   0  0  0  0  0  0  0  0  0  0  0  0
    5.3486    0.8578    0.0000 Cl  0  0  0  0  0  0  0  0  0  0  0  0
    3.5305   -0.9982    0.0000 N   0  0  0  0  0  0  0  0  0  0  0  0
    2.0857   -1.4013    0.0000 C   0  0  0  0  0  0  0  0  0  0  0  0
    1.7125   -2.8541    0.0000 Cl  0  0  0  0  0  0  0  0  0  0  0  0
  1  2  1  0
  2  3  1  0
  3  4  1  0
  4  5  2  0
  4  6  1  0
  6  7  1  0
  7  8  2  0
  7  9  1  0
  9 10  2  0
 10 11  1  0
 11 12  1  0
 11 13  2  0
 13 14  1  0
 13 15  1  0
 15 16  2  0
 16 17  1  0
 16  9  1  0
M  END
> <Identifier>
Ethyl 2,6-dichloro-5-fluoro-b-oxo-3-pyridinepropanoate

> <SkinReaction>
0

$$$$

     RDKit          2D

 14 14  0  0  0  0  0  0  0  0999 V2000
   -5.9109    1.2097    0.0000 C   0  0  0  0  0  0  0  0  0  0  0  0
   -4.7625    0.2447    0.0000 C   0  0  0  0  0  0  0  0  0  0  0  0
   -3.3526    0.7568    0.0000 O   0  0  0  0  0  0  0  0  0  0  0  0
   -2.2042   -0.2082    0.0000 C   0  0  0  0  0  0  0  0  0  0  0  0
   -2.4657   -1.6852    0.0000 O   0  0  0  0  0  0  0  0  0  0  0  0
   -0.7943    0.3038    0.0000 C   0  0  0  0  0  0  0  0  0  0  0  0
    0.3541   -0.6611    0.0000 C   0  0  0  0  0  0  0  0  0  0  0  0
    0.0926   -2.1382    0.0000 O   0  0  0  0  0  0  0  0  0  0  0  0
    1.7640   -0.1491    0.0000 C   0  0  0  0  0  0  0  0  0  0  0  0
    2.0255    1.3279    0.0000 C   0  0  0  0  0  0  0  0  0  0  0  0
    3.4354    1.8400    0.0000 C   0  0  0  0  0  0  0  0  0  0  0  0
    4.5838    0.8750    0.0000 C   0  0  0  0  0  0  0  0  0  0  0  0
    4.3223   -0.6020    0.0000 C   0  0  0  0  0  0  0  0  0  0  0  0
    2.9124   -1.1141    0.0000 C   0  0  0  0  0  0  0  0  0  0  0  0
  1  2  1  0
  2  3  1  0
  3  4  1  0
  4  5  2  0
  4  6  1  0
  6  7  1  0
  7  8  2  0
  7  9  1  0
  9 10  2  0
 10 11  1  0
 11 12  2  0
 12 13  1  0
 13 14  2  0
 14  9  1  0
M  END
> <Identifier>
Ethyl benzoylacetate

> <SkinReaction>
0

$$$$

     RDKit          2D

 12 12  0  0  0  0  0  0  0  0999 V2000
    4.2307   -1.7611    0.0000 C   0  0  0  0  0  0  0  0  0  0  0  0
    2.7619   -1.4567    0.0000 C   0  0  0  0  0  0  0  0  0  0  0  0
    2.2911   -0.0325    0.0000 O   0  0  0  0  0  0  0  0  0  0  0  0
    0.8223    0.2718    0.0000 C   0  0  0  0  0  0  0  0  0  0  0  0
   -0.1757   -0.8480    0.0000 C   0  0  0  0  0  0  0  0  0  0  0  0
   -1.6445   -0.5437    0.0000 C   0  0  0  0  0  0  0  0  0  0  0  0
   -2.6425   -1.6635    0.0000 C   0  0  0  0  0  0  0  0  0  0  0  0
   -4.1113   -1.3592    0.0000 O   0  0  0  0  0  0  0  0  0  0  0  0
   -2.1153    0.8805    0.0000 C   0  0  0  0  0  0  0  0  0  0  0  0
   -1.1174    2.0004    0.0000 C   0  0  0  0  0  0  0  0  0  0  0  0
    0.3514    1.6960    0.0000 C   0  0  0  0  0  0  0  0  0  0  0  0
    1.3494    2.8159    0.0000 O   0  0  0  0  0  0  0  0  0  0  0  0
  1  2  1  0
  2  3  1  0
  3  4  1  0
  4  5  2  0
  5  6  1  0
  6  7  1  0
  7  8  2  0
  6  9  2  0
  9 10  1  0
 10 11  2  0
 11 12  1  0
 11  4  1  0
M  END
> <Identifier>
Ethyl vanillin

> <SkinReaction>
0

$$$$

     RDKit          2D

  8  7  0  0  0  0  0  0  0  0999 V2000
    2.2678   -1.4730    0.0000 O   0  0  0  0  0  0  0  0  0  0  0  0
    1.9843   -0.0000    0.0000 C   0  0  0  0  0  0  0  0  0  0  0  0
    3.1182    0.9820    0.0000 O   0  0  0  0  0  0  0  0  0  0  0  0
    0.5669    0.4910    0.0000 C   0  0  0  0  0  0  0  0  0  0  0  0
   -0.5669   -0.4910    0.0000 C   0  0  0  0  0  0  0  0  0  0  0  0
   -1.9843    0.0000    0.0000 C   0  0  0  0  0  0  0  0  0  0  0  0
   -2.2678    1.4730    0.0000 O   0  0  0  0  0  0  0  0  0  0  0  0
   -3.1182   -0.9820    0.0000 O   0  0  0  0  0  0  0  0  0  0  0  0
  1  2  2  0
  2  3  1  0
  2  4  1  0
  4  5  2  3
  5  6  1  0
  6  7  2  0
  6  8  1  0
M  END
> <Identifier>
Fumaric acid

> <SkinReaction>
0

$$$$

     RDKit          2D

 14 15  0  0  0  0  0  0  0  0999 V2000
    0.0399   -1.9839    0.0000 O   0  0  0  0  0  0  0  0  0  0  0  0
    0.5023   -0.5570    0.0000 C   0  0  0  0  0  0  0  0  0  0  0  0
   -0.5023    0.5570    0.0000 C   0  0  0  0  0  0  0  0  0  0  0  0
   -0.0399    1.9839    0.0000 O   0  0  0  0  0  0  0  0  0  0  0  0
   -1.9693    0.2440    0.0000 C   0  0  0  0  0  0  0  0  0  0  0  0
   -2.5783   -1.1268    0.0000 C   0  0  0  0  0  0  0  0  0  0  0  0
   -4.0702   -0.9712    0.0000 C   0  0  0  0  0  0  0  0  0  0  0  0
   -4.3832    0.4958    0.0000 C   0  0  0  0  0  0  0  0  0  0  0  0
   -3.0848    1.2468    0.0000 O   0  0  0  0  0  0  0  0  0  0  0  0
    1.9693   -0.2440    0.0000 C   0  0  0  0  0  0  0  0  0  0  0  0
    2.5783    1.1268    0.0000 C   0  0  0  0  0  0  0  0  0  0  0  0
    4.0702    0.9712    0.0000 C   0  0  0  0  0  0  0  0  0  0  0  0
    4.3832   -0.4958    0.0000 C   0  0  0  0  0  0  0  0  0  0  0  0
    3.0848   -1.2468    0.0000 O   0  0  0  0  0  0  0  0  0  0  0  0
  1  2  2  0
  2  3  1  0
  3  4  2  0
  3  5  1  0
  5  6  2  0
  6  7  1  0
  7  8  2  0
  8  9  1  0
  2 10  1  0
 10 11  2  0
 11 12  1  0
 12 13  2  0
 13 14  1  0
  9  5  1  0
 14 10  1  0
M  END
> <Identifier>
Furil

> <SkinReaction>
0

$$$$

     RDKit          2D

  6  5  0  0  0  0  0  0  0  0999 V2000
   -2.5981    0.0000    0.0000 O   0  0  0  0  0  0  0  0  0  0  0  0
   -1.2990   -0.7500    0.0000 C   0  0  0  0  0  0  0  0  0  0  0  0
    0.0000    0.0000    0.0000 C   0  0  0  0  0  0  0  0  0  0  0  0
    0.0000    1.5000    0.0000 O   0  0  0  0  0  0  0  0  0  0  0  0
    1.2990   -0.7500    0.0000 C   0  0  0  0  0  0  0  0  0  0  0  0
    2.5981   -0.0000    0.0000 O   0  0  0  0  0  0  0  0  0  0  0  0
  1  2  1  0
  2  3  1  0
  3  4  1  0
  3  5  1  0
  5  6  1  0
M  END
> <Identifier>
Glycerol

> <SkinReaction>
0

$$$$

     RDKit          2D

  6  5  0  0  0  0  0  0  0  0999 V2000
   -3.2624   -0.2097    0.0000 C   0  0  0  0  0  0  0  0  0  0  0  0
   -1.9270    0.4734    0.0000 C   0  0  0  0  0  0  0  0  0  0  0  0
   -0.6677   -0.3416    0.0000 C   0  0  0  0  0  0  0  0  0  0  0  0
    0.6677    0.3416    0.0000 C   0  0  0  0  0  0  0  0  0  0  0  0
    1.9270   -0.4734    0.0000 C   0  0  0  0  0  0  0  0  0  0  0  0
    3.2624    0.2097    0.0000 C   0  0  0  0  0  0  0  0  0  0  0  0
  1  2  1  0
  2  3  1  0
  3  4  1  0
  4  5  1  0
  5  6  1  0
M  END
> <Identifier>
Hexane

> <SkinReaction>
0

$$$$

     RDKit          2D

  7  6  0  0  0  0  0  0  0  0999 V2000
   -3.8971   -0.3214    0.0000 C   0  0  0  0  0  0  0  0  0  0  0  0
   -2.5981    0.4286    0.0000 C   0  0  0  0  0  0  0  0  0  0  0  0
   -1.2990   -0.3214    0.0000 C   0  0  0  0  0  0  0  0  0  0  0  0
    0.0000    0.4286    0.0000 C   0  0  0  0  0  0  0  0  0  0  0  0
    1.2990   -0.3214    0.0000 C   0  0  0  0  0  0  0  0  0  0  0  0
    2.5981    0.4286    0.0000 C   0  0  0  0  0  0  0  0  0  0  0  0
    3.8971   -0.3214    0.0000 I   0  0  0  0  0  0  0  0  0  0  0  0
  1  2  1  0
  2  3  1  0
  3  4  1  0
  4  5  1  0
  5  6  1  0
  6  7  1  0
M  END
> <Identifier>
Iodohexane

> <SkinReaction>
0

$$$$

     RDKit          2D

 19 18  0  0  0  0  0  0  0  0999 V2000
  -11.6913   -0.3553    0.0000 C   0  0  0  0  0  0  0  0  0  0  0  0
  -10.3923    0.3947    0.0000 C   0  0  0  0  0  0  0  0  0  0  0  0
   -9.0933   -0.3553    0.0000 C   0  0  0  0  0  0  0  0  0  0  0  0
   -7.7942    0.3947    0.0000 C   0  0  0  0  0  0  0  0  0  0  0  0
   -6.4952   -0.3553    0.0000 C   0  0  0  0  0  0  0  0  0  0  0  0
   -5.1962    0.3947    0.0000 C   0  0  0  0  0  0  0  0  0  0  0  0
   -3.8971   -0.3553    0.0000 C   0  0  0  0  0  0  0  0  0  0  0  0
   -2.5981    0.3947    0.0000 C   0  0  0  0  0  0  0  0  0  0  0  0
   -1.2990   -0.3553    0.0000 C   0  0  0  0  0  0  0  0  0  0  0  0
    0.0000    0.3947    0.0000 C   0  0  0  0  0  0  0  0  0  0  0  0
    1.2990   -0.3553    0.0000 C   0  0  0  0  0  0  0  0  0  0  0  0
    2.5981    0.3947    0.0000 C   0  0  0  0  0  0  0  0  0  0  0  0
    3.8971   -0.3553    0.0000 C   0  0  0  0  0  0  0  0  0  0  0  0
    5.1962    0.3947    0.0000 C   0  0  0  0  0  0  0  0  0  0  0  0
    6.4952   -0.3553    0.0000 C   0  0  0  0  0  0  0  0  0  0  0  0
    7.7942    0.3947    0.0000 C   0  0  0  0  0  0  0  0  0  0  0  0
    9.0933   -0.3553    0.0000 C   0  0  0  0  0  0  0  0  0  0  0  0
   10.3923    0.3947    0.0000 C   0  0  0  0  0  0  0  0  0  0  0  0
   11.6913   -0.3553    0.0000 I   0  0  0  0  0  0  0  0  0  0  0  0
  1  2  1  0
  2  3  1  0
  3  4  1  0
  4  5  1  0
  5  6  1  0
  6  7  1  0
  7  8  1  0
  8  9  1  0
  9 10  1  0
 10 11  1  0
 11 12  1  0
 12 13  1  0
 13 14  1  0
 14 15  1  0
 15 16  1  0
 16 17  1  0
 17 18  1  0
 18 19  1  0
M  END
> <Identifier>
Iodooctadecane

> <SkinReaction>
0

$$$$

     RDKit          2D

  4  3  0  0  0  0  0  0  0  0999 V2000
   -1.2990   -0.7500    0.0000 C   0  0  0  0  0  0  0  0  0  0  0  0
    0.0000    0.0000    0.0000 C   0  0  0  0  0  0  0  0  0  0  0  0
    1.2990   -0.7500    0.0000 C   0  0  0  0  0  0  0  0  0  0  0  0
    0.0000    1.5000    0.0000 O   0  0  0  0  0  0  0  0  0  0  0  0
  1  2  1  0
  2  3  1  0
  2  4  1  0
M  END
> <Identifier>
Isopropanol

> <SkinReaction>
0

$$$$

     RDKit          2D

  8  7  0  0  0  0  0  0  0  0999 V2000
   -1.2990   -2.0625    0.0000 C   0  0  0  0  0  0  0  0  0  0  0  0
    0.0000   -1.3125    0.0000 C   0  0  0  0  0  0  0  0  0  0  0  0
    1.2990   -2.0625    0.0000 C   0  0  0  0  0  0  0  0  0  0  0  0
    0.0000    0.1875    0.0000 N   0  0  0  0  0  0  0  0  0  0  0  0
    1.2990    0.9375    0.0000 C   0  0  0  0  0  0  0  0  0  0  0  0
    2.5981    1.6875    0.0000 N   0  0  0  0  0  0  0  0  0  0  0  0
   -1.2990    0.9375    0.0000 C   0  0  0  0  0  0  0  0  0  0  0  0
   -2.5981    1.6875    0.0000 N   0  0  0  0  0  0  0  0  0  0  0  0
  1  2  1  0
  2  3  1  0
  2  4  1  0
  4  5  1  0
  5  6  3  0
  4  7  1  0
  7  8  3  0
M  END
> <Identifier>
Isopropyl dicyandiamide

> <SkinReaction>
0

$$$$

     RDKit          2D

 14 14  0  0  0  0  0  0  0  0999 V2000
   -5.0882   -1.5216    0.0000 C   0  0  0  0  0  0  0  0  0  0  0  0
   -3.9638   -0.5288    0.0000 C   0  0  0  0  0  0  0  0  0  0  0  0
   -2.5418   -1.0063    0.0000 C   0  0  0  0  0  0  0  0  0  0  0  0
   -1.4173   -0.0135    0.0000 C   0  0  0  0  0  0  0  0  0  0  0  0
   -1.7148    1.4567    0.0000 C   0  0  0  0  0  0  0  0  0  0  0  0
   -0.5903    2.4494    0.0000 C   0  0  0  0  0  0  0  0  0  0  0  0
    0.8316    1.9720    0.0000 C   0  0  0  0  0  0  0  0  0  0  0  0
    1.9561    2.9647    0.0000 O   0  0  0  0  0  0  0  0  0  0  0  0
    1.1292    0.5018    0.0000 C   0  0  0  0  0  0  0  0  0  0  0  0
    2.5511    0.0243    0.0000 O   0  0  0  0  0  0  0  0  0  0  0  0
    2.8487   -1.4459    0.0000 C   0  0  0  0  0  0  0  0  0  0  0  0
    4.2706   -1.9233    0.0000 C   0  0  0  0  0  0  0  0  0  0  0  0
    1.7242   -2.4386    0.0000 C   0  0  0  0  0  0  0  0  0  0  0  0
    0.0047   -0.4910    0.0000 C   0  0  0  0  0  0  0  0  0  0  0  0
  1  2  2  0
  2  3  1  0
  3  4  1  0
  4  5  2  0
  5  6  1  0
  6  7  2  0
  7  8  1  0
  7  9  1  0
  9 10  1  0
 10 11  1  0
 11 12  1  0
 11 13  1  0
  9 14  2  0
 14  4  1  0
M  END
> <Identifier>
Isopropyl eugenol

> <SkinReaction>
0

$$$$

     RDKit          2D

 33 35  0  0  0  0  0  0  0  0999 V2000
    1.6781   -3.2122    0.0000 N   0  0  0  0  0  0  0  0  0  0  0  0
    3.1772   -3.1614    0.0000 C   0  0  0  0  0  0  0  0  0  0  0  0
    3.8827   -1.8376    0.0000 C   0  0  0  0  0  0  0  0  0  0  0  0
    3.0891   -0.5648    0.0000 O   0  0  0  0  0  0  0  0  0  0  0  0
    3.7946    0.7590    0.0000 C   0  0  0  0  0  0  0  0  0  0  0  0
    3.0010    2.0318    0.0000 O   0  0  0  0  0  0  0  0  0  0  0  0
    1.5019    1.9809    0.0000 C   0  0  0  0  0  0  0  0  0  0  0  0
    0.7082    3.2538    0.0000 C   0  0  0  0  0  0  0  0  0  0  0  0
    1.4138    4.5775    0.0000 N   0  0  0  0  0  0  0  0  0  0  0  0
   -0.7909    3.2029    0.0000 C   0  0  0  0  0  0  0  0  0  0  0  0
   -1.4964    1.8792    0.0000 C   0  0  0  0  0  0  0  0  0  0  0  0
   -2.9955    1.8283    0.0000 N   0  0  0  0  0  0  0  0  0  0  0  0
   -0.7028    0.6064    0.0000 C   0  0  0  0  0  0  0  0  0  0  0  0
   -1.4083   -0.7174    0.0000 O   0  0  0  0  0  0  0  0  0  0  0  0
   -2.9074   -0.7682    0.0000 C   0  0  0  0  0  0  0  0  0  0  0  0
   -3.7011    0.5046    0.0000 O   0  0  0  0  0  0  0  0  0  0  0  0
   -5.2002    0.4538    0.0000 C   0  0  0  0  0  0  0  0  0  0  0  0
   -5.9938    1.7266    0.0000 C   0  0  0  0  0  0  0  0  0  0  0  0
   -5.2883    3.0503    0.0000 O   0  0  0  0  0  0  0  0  0  0  0  0
   -5.9057   -0.8700    0.0000 C   0  0  0  0  0  0  0  0  0  0  0  0
   -7.4049   -0.9208    0.0000 O   0  0  0  0  0  0  0  0  0  0  0  0
   -5.1121   -2.1428    0.0000 C   0  0  0  0  0  0  0  0  0  0  0  0
   -5.8176   -3.4666    0.0000 N   0  0  0  0  0  0  0  0  0  0  0  0
   -3.6130   -2.0920    0.0000 C   0  0  0  0  0  0  0  0  0  0  0  0
   -2.8193   -3.3648    0.0000 O   0  0  0  0  0  0  0  0  0  0  0  0
    0.7964    0.6572    0.0000 C   0  0  0  0  0  0  0  0  0  0  0  0
    1.5900   -0.6156    0.0000 O   0  0  0  0  0  0  0  0  0  0  0  0
    5.2938    0.8098    0.0000 C   0  0  0  0  0  0  0  0  0  0  0  0
    5.9993    2.1335    0.0000 O   0  0  0  0  0  0  0  0  0  0  0  0
    6.0874   -0.4630    0.0000 C   0  0  0  0  0  0  0  0  0  0  0  0
    7.5865   -0.4122    0.0000 O   0  0  0  0  0  0  0  0  0  0  0  0
    5.3819   -1.7868    0.0000 C   0  0  0  0  0  0  0  0  0  0  0  0
    6.1755   -3.0596    0.0000 O   0  0  0  0  0  0  0  0  0  0  0  0
  1  2  1  0
  2  3  1  0
  3  4  1  0
  4  5  1  0
  5  6  1  0
  6  7  1  0
  7  8  1  0
  8  9  1  0
  8 10  1  0
 10 11  1  0
 11 12  1  0
 11 13  1  0
 13 14  1  0
 14 15  1  0
 15 16  1  0
 16 17  1  0
 17 18  1  0
 18 19  1  0
 17 20  1  0
 20 21  1  0
 20 22  1  0
 22 23  1  0
 22 24  1  0
 24 25  1  0
 13 26  1  0
 26 27  1  0
  5 28  1  0
 28 29  1  0
 28 30  1  0
 30 31  1  0
 30 32  1  0
 32 33  1  0
 32  3  1  0
 26  7  1  0
 24 15  1  0
M  END
> <Identifier>
Kanamycin

> <SkinReaction>
0

$$$$

     RDKit          2D

  6  5  0  0  0  0  0  0  0  0999 V2000
    1.5000    1.2990    0.0000 C   0  0  0  0  0  0  0  0  0  0  0  0
    0.7500    0.0000    0.0000 C   0  0  0  0  0  0  0  0  0  0  0  0
    1.5000   -1.2990    0.0000 O   0  0  0  0  0  0  0  0  0  0  0  0
   -0.7500   -0.0000    0.0000 C   0  0  0  0  0  0  0  0  0  0  0  0
   -1.5000    1.2990    0.0000 O   0  0  0  0  0  0  0  0  0  0  0  0
   -1.5000   -1.2990    0.0000 O   0  0  0  0  0  0  0  0  0  0  0  0
  1  2  1  0
  2  3  1  0
  2  4  1  0
  4  5  2  0
  4  6  1  0
M  END
> <Identifier>
Lactic acid

> <SkinReaction>
0

$$$$

     RDKit          2D

 11 11  0  0  0  0  0  0  0  0999 V2000
   -4.1960    0.2004    0.0000 C   0  0  0  0  0  0  0  0  0  0  0  0
   -2.7614    0.6385    0.0000 C   0  0  0  0  0  0  0  0  0  0  0  0
   -1.6647   -0.3849    0.0000 C   0  0  0  0  0  0  0  0  0  0  0  0
   -2.0026   -1.8463    0.0000 O   0  0  0  0  0  0  0  0  0  0  0  0
   -0.2301    0.0532    0.0000 C   0  0  0  0  0  0  0  0  0  0  0  0
    0.1078    1.5147    0.0000 C   0  0  0  0  0  0  0  0  0  0  0  0
    1.5424    1.9527    0.0000 C   0  0  0  0  0  0  0  0  0  0  0  0
    2.6391    0.9294    0.0000 C   0  0  0  0  0  0  0  0  0  0  0  0
    2.3012   -0.5320    0.0000 C   0  0  0  0  0  0  0  0  0  0  0  0
    3.3979   -1.5554    0.0000 Cl  0  0  0  0  0  0  0  0  0  0  0  0
    0.8666   -0.9701    0.0000 C   0  0  0  0  0  0  0  0  0  0  0  0
  1  2  1  0
  2  3  1  0
  3  4  2  0
  3  5  1  0
  5  6  2  0
  6  7  1  0
  7  8  2  0
  8  9  1  0
  9 10  1  0
  9 11  2  0
 11  5  1  0
M  END
> <Identifier>
m-Chloropropiophenone

> <SkinReaction>
0

$$$$

     RDKit          2D

 11 11  0  0  0  0  0  0  0  0999 V2000
   -4.1862    0.7785    0.0000 C   0  0  0  0  0  0  0  0  0  0  0  0
   -2.6933    0.9240    0.0000 O   0  0  0  0  0  0  0  0  0  0  0  0
   -1.8208   -0.2961    0.0000 C   0  0  0  0  0  0  0  0  0  0  0  0
   -2.4412   -1.6618    0.0000 O   0  0  0  0  0  0  0  0  0  0  0  0
   -0.3278   -0.1506    0.0000 C   0  0  0  0  0  0  0  0  0  0  0  0
    0.2926    1.2151    0.0000 C   0  0  0  0  0  0  0  0  0  0  0  0
    1.7855    1.3606    0.0000 C   0  0  0  0  0  0  0  0  0  0  0  0
    2.6580    0.1404    0.0000 C   0  0  0  0  0  0  0  0  0  0  0  0
    4.1509    0.2860    0.0000 O   0  0  0  0  0  0  0  0  0  0  0  0
    2.0376   -1.2252    0.0000 C   0  0  0  0  0  0  0  0  0  0  0  0
    0.5446   -1.3708    0.0000 C   0  0  0  0  0  0  0  0  0  0  0  0
  1  2  1  0
  2  3  1  0
  3  4  2  0
  3  5  1  0
  5  6  2  0
  6  7  1  0
  7  8  2  0
  8  9  1  0
  8 10  1  0
 10 11  2  0
 11  5  1  0
M  END
> <Identifier>
Methyl 4-hydroxybenzoate

> <SkinReaction>
0

$$$$

     RDKit          2D

 11 11  0  0  0  0  0  0  0  0999 V2000
   -3.8677    0.7778    0.0000 C   0  0  0  0  0  0  0  0  0  0  0  0
   -2.3891    1.0300    0.0000 O   0  0  0  0  0  0  0  0  0  0  0  0
   -1.4313   -0.1244    0.0000 C   0  0  0  0  0  0  0  0  0  0  0  0
   -1.9521   -1.5310    0.0000 O   0  0  0  0  0  0  0  0  0  0  0  0
    0.0474    0.1279    0.0000 C   0  0  0  0  0  0  0  0  0  0  0  0
    0.5682    1.5345    0.0000 C   0  0  0  0  0  0  0  0  0  0  0  0
    2.0468    1.7868    0.0000 C   0  0  0  0  0  0  0  0  0  0  0  0
    3.0046    0.6324    0.0000 C   0  0  0  0  0  0  0  0  0  0  0  0
    2.4838   -0.7743    0.0000 C   0  0  0  0  0  0  0  0  0  0  0  0
    1.0051   -1.0265    0.0000 C   0  0  0  0  0  0  0  0  0  0  0  0
    0.4843   -2.4332    0.0000 O   0  0  0  0  0  0  0  0  0  0  0  0
  1  2  1  0
  2  3  1  0
  3  4  2  0
  3  5  1  0
  5  6  2  0
  6  7  1  0
  7  8  2  0
  8  9  1  0
  9 10  2  0
 10 11  1  0
 10  5  1  0
M  END
> <Identifier>
Methyl salicylate

> <SkinReaction>
0

$$$$

     RDKit          2D

 19 21  0  0  0  0  0  0  0  0999 V2000
   -4.6928   -2.2297    0.0000 C   0  0  0  0  0  0  0  0  0  0  0  0
   -4.0978   -0.8528    0.0000 C   0  0  0  0  0  0  0  0  0  0  0  0
   -2.6341   -0.5248    0.0000 C   0  0  0  0  0  0  0  0  0  0  0  0
   -1.4110   -1.3930    0.0000 C   0  0  0  0  0  0  0  0  0  0  0  0
   -0.0475   -0.7679    0.0000 C   0  0  0  0  0  0  0  0  0  0  0  0
    0.0929    0.7255    0.0000 C   0  0  0  0  0  0  0  0  0  0  0  0
    1.4564    1.3507    0.0000 N   0  0  0  0  0  0  0  0  0  0  0  0
    2.6796    0.4824    0.0000 C   0  0  0  0  0  0  0  0  0  0  0  0
    2.5392   -1.0110    0.0000 C   0  0  0  0  0  0  0  0  0  0  0  0
    3.7624   -1.8792    0.0000 C   0  0  0  0  0  0  0  0  0  0  0  0
    5.1259   -1.2541    0.0000 N   0  0  0  0  0  0  0  0  0  0  0  0
    5.2663    0.2393    0.0000 C   0  0  0  0  0  0  0  0  0  0  0  0
    6.6298    0.8645    0.0000 Cl  0  0  0  0  0  0  0  0  0  0  0  0
    4.0431    1.1076    0.0000 N   0  0  0  0  0  0  0  0  0  0  0  0
   -1.1303    1.5938    0.0000 C   0  0  0  0  0  0  0  0  0  0  0  0
   -2.4938    0.9687    0.0000 C   0  0  0  0  0  0  0  0  0  0  0  0
   -3.8707    1.5636    0.0000 N   0  0  0  0  0  0  0  0  0  0  0  0
   -4.8621    0.4379    0.0000 N   0  0  0  0  0  0  0  0  0  0  0  0
   -6.3555    0.5783    0.0000 C   0  0  0  0  0  0  0  0  0  0  0  0
  1  2  1  0
  2  3  2  0
  3  4  1  0
  4  5  2  0
  5  6  1  0
  6  7  1  0
  7  8  1  0
  8  9  2  0
  9 10  1  0
 10 11  2  0
 11 12  1  0
 12 13  1  0
 12 14  2  0
  6 15  2  0
 15 16  1  0
 16 17  2  0
 17 18  1  0
 18 19  1  0
 18  2  1  0
 16  3  1  0
 14  8  1  0
M  END
> <Identifier>
N-(2-Chloro-4-pyrimidinyl)-2,3-dimethyl-2H-indazol-6-amine

> <SkinReaction>
0

$$$$

     RDKit          2D

 20 22  0  0  0  0  0  0  0  0999 V2000
   -5.4239   -0.7441    0.0000 C   0  0  0  0  0  0  0  0  0  0  0  0
   -4.1063   -0.0273    0.0000 C   0  0  0  0  0  0  0  0  0  0  0  0
   -2.7519   -0.6720    0.0000 C   0  0  0  0  0  0  0  0  0  0  0  0
   -2.3247   -2.1099    0.0000 C   0  0  0  0  0  0  0  0  0  0  0  0
   -0.8659   -2.4589    0.0000 C   0  0  0  0  0  0  0  0  0  0  0  0
    0.1658   -1.3700    0.0000 C   0  0  0  0  0  0  0  0  0  0  0  0
    1.6246   -1.7190    0.0000 N   0  0  0  0  0  0  0  0  0  0  0  0
    2.0518   -3.1569    0.0000 C   0  0  0  0  0  0  0  0  0  0  0  0
    2.6563   -0.6301    0.0000 C   0  0  0  0  0  0  0  0  0  0  0  0
    4.1151   -0.9792    0.0000 C   0  0  0  0  0  0  0  0  0  0  0  0
    5.1468    0.1097    0.0000 C   0  0  0  0  0  0  0  0  0  0  0  0
    4.7196    1.5476    0.0000 N   0  0  0  0  0  0  0  0  0  0  0  0
    3.2608    1.8966    0.0000 C   0  0  0  0  0  0  0  0  0  0  0  0
    2.8336    3.3345    0.0000 Cl  0  0  0  0  0  0  0  0  0  0  0  0
    2.2291    0.8077    0.0000 N   0  0  0  0  0  0  0  0  0  0  0  0
   -0.2614    0.0679    0.0000 C   0  0  0  0  0  0  0  0  0  0  0  0
   -1.7202    0.4169    0.0000 C   0  0  0  0  0  0  0  0  0  0  0  0
   -2.4370    1.7346    0.0000 N   0  0  0  0  0  0  0  0  0  0  0  0
   -3.9117    1.4600    0.0000 N   0  0  0  0  0  0  0  0  0  0  0  0
   -5.0005    2.4917    0.0000 C   0  0  0  0  0  0  0  0  0  0  0  0
  1  2  1  0
  2  3  2  0
  3  4  1  0
  4  5  2  0
  5  6  1  0
  6  7  1  0
  7  8  1  0
  7  9  1  0
  9 10  2  0
 10 11  1  0
 11 12  2  0
 12 13  1  0
 13 14  1  0
 13 15  2  0
  6 16  2  0
 16 17  1  0
 17 18  2  0
 18 19  1  0
 19 20  1  0
 19  2  1  0
 17  3  1  0
 15  9  1  0
M  END
> <Identifier>
N-(2-Chloro-4-pyrimidinyl)-N,2,3-trimethyl-2H-indazol-6-amine

> <SkinReaction>
0

$$$$

     RDKit          2D

 22 22  0  0  0  0  0  0  0  0999 V2000
   -4.8667   -2.2749    0.0000 C   0  0  0  0  0  0  0  0  0  0  0  0
   -3.4540   -2.7793    0.0000 C   0  0  0  0  0  0  0  0  0  0  0  0
   -2.3109   -1.8082    0.0000 O   0  0  0  0  0  0  0  0  0  0  0  0
   -0.8982   -2.3126    0.0000 C   0  0  0  0  0  0  0  0  0  0  0  0
   -0.6288   -3.7882    0.0000 O   0  0  0  0  0  0  0  0  0  0  0  0
    0.2450   -1.3415    0.0000 C   0  0  0  0  0  0  0  0  0  0  0  0
    1.6576   -1.8459    0.0000 C   0  0  0  0  0  0  0  0  0  0  0  0
    2.8008   -0.8747    0.0000 C   0  0  0  0  0  0  0  0  0  0  0  0
    2.5313    0.6009    0.0000 C   0  0  0  0  0  0  0  0  0  0  0  0
    3.6745    1.5720    0.0000 C   0  0  0  0  0  0  0  0  0  0  0  0
    5.0871    1.0676    0.0000 C   0  0  0  0  0  0  0  0  0  0  0  0
    6.2303    2.0387    0.0000 O   0  0  0  0  0  0  0  0  0  0  0  0
    5.3566   -0.4080    0.0000 C   0  0  0  0  0  0  0  0  0  0  0  0
    4.2134   -1.3792    0.0000 C   0  0  0  0  0  0  0  0  0  0  0  0
   -0.0245    0.1341    0.0000 N   0  0  0  0  0  0  0  0  0  0  0  0
   -1.4371    0.6386    0.0000 C   0  0  0  0  0  0  0  0  0  0  0  0
   -2.5803   -0.3326    0.0000 O   0  0  0  0  0  0  0  0  0  0  0  0
   -1.7066    2.1142    0.0000 O   0  0  0  0  0  0  0  0  0  0  0  0
   -3.1192    2.6186    0.0000 C   0  0  0  0  0  0  0  0  0  0  0  0
   -2.6148    4.0313    0.0000 C   0  0  0  0  0  0  0  0  0  0  0  0
   -3.6237    1.2060    0.0000 C   0  0  0  0  0  0  0  0  0  0  0  0
   -4.5319    3.1231    0.0000 C   0  0  0  0  0  0  0  0  0  0  0  0
  1  2  1  0
  2  3  1  0
  3  4  1  0
  4  5  2  0
  4  6  1  0
  6  7  1  0
  7  8  1  0
  8  9  2  0
  9 10  1  0
 10 11  2  0
 11 12  1  0
 11 13  1  0
 13 14  2  0
  6 15  1  0
 15 16  1  0
 16 17  2  0
 16 18  1  0
 18 19  1  0
 19 20  1  0
 19 21  1  0
 19 22  1  0
 14  8  1  0
M  END
> <Identifier>
N-[(1,1-Dimethylethoxy)-carbonyl]-L- tyrosine, ethyl ester

> <SkinReaction>
0

$$$$

     RDKit          2D

 27 30  0  0  0  0  0  0  0  0999 V2000
    8.9044   -2.8092    0.0000 C   0  0  0  0  0  0  0  0  0  0  0  0
    8.5347   -1.3555    0.0000 C   0  0  0  0  0  0  0  0  0  0  0  0
    7.0908   -0.9488    0.0000 C   0  0  0  0  0  0  0  0  0  0  0  0
    6.7211    0.5049    0.0000 C   0  0  0  0  0  0  0  0  0  0  0  0
    5.2773    0.9115    0.0000 N   0  0  0  0  0  0  0  0  0  0  0  0
    4.2032   -0.1356    0.0000 C   0  0  0  0  0  0  0  0  0  0  0  0
    2.7594    0.2711    0.0000 C   0  0  0  0  0  0  0  0  0  0  0  0
    2.3896    1.7248    0.0000 C   0  0  0  0  0  0  0  0  0  0  0  0
    0.9458    2.1314    0.0000 C   0  0  0  0  0  0  0  0  0  0  0  0
   -0.1283    1.0844    0.0000 N   0  0  0  0  0  0  0  0  0  0  0  0
   -1.5721    1.4910    0.0000 C   0  0  0  0  0  0  0  0  0  0  0  0
   -1.9419    2.9447    0.0000 O   0  0  0  0  0  0  0  0  0  0  0  0
   -2.6462    0.4439    0.0000 C   0  0  0  0  0  0  0  0  0  0  0  0
   -4.1246    0.6974    0.0000 C   0  0  0  0  0  0  0  0  0  0  0  0
   -4.8226   -0.6303    0.0000 N   0  0  0  0  0  0  0  0  0  0  0  0
   -3.7755   -1.7044    0.0000 C   0  0  0  0  0  0  0  0  0  0  0  0
   -3.8731   -3.2012    0.0000 C   0  0  0  0  0  0  0  0  0  0  0  0
   -2.6256   -4.0341    0.0000 C   0  0  0  0  0  0  0  0  0  0  0  0
   -1.2805   -3.3702    0.0000 C   0  0  0  0  0  0  0  0  0  0  0  0
   -1.1829   -1.8734    0.0000 C   0  0  0  0  0  0  0  0  0  0  0  0
   -2.4304   -1.0405    0.0000 C   0  0  0  0  0  0  0  0  0  0  0  0
   -6.3214   -0.6897    0.0000 C   0  0  0  0  0  0  0  0  0  0  0  0
   -7.1223    0.5786    0.0000 C   0  0  0  0  0  0  0  0  0  0  0  0
   -6.4243    1.9063    0.0000 C   0  0  0  0  0  0  0  0  0  0  0  0
   -4.9255    1.9657    0.0000 O   0  0  0  0  0  0  0  0  0  0  0  0
    3.4637    2.7719    0.0000 C   0  0  0  0  0  0  0  0  0  0  0  0
    4.9075    2.3652    0.0000 C   0  0  0  0  0  0  0  0  0  0  0  0
  1  2  1  0
  2  3  1  0
  3  4  1  0
  4  5  1  0
  5  6  1  0
  6  7  1  0
  7  8  1  0
  8  9  1  0
  9 10  1  0
 10 11  1  0
 11 12  2  0
 11 13  1  0
 13 14  2  0
 14 15  1  0
 15 16  1  0
 16 17  2  0
 17 18  1  0
 18 19  2  0
 19 20  1  0
 20 21  2  0
 15 22  1  0
 22 23  1  0
 23 24  1  0
 24 25  1  0
  8 26  1  0
 26 27  1  0
 27  5  1  0
 21 13  1  0
 25 14  1  0
 21 16  1  0
M  END
> <Identifier>
N-[(1-Butyl-4-piperidinyl)methyl]-3,4-dihydro-2H-[1,3]oxazino[3,2-a]indole-10-carboxamide

> <SkinReaction>
0

$$$$

     RDKit          2D

 27 28  0  0  0  0  0  0  0  0999 V2000
    6.2094    0.8888    0.0000 C   0  0  0  0  0  0  0  0  0  0  0  0
    5.5017   -0.4338    0.0000 C   0  0  0  0  0  0  0  0  0  0  0  0
    4.7940   -1.7564    0.0000 C   0  0  0  0  0  0  0  0  0  0  0  0
    6.8243   -1.1415    0.0000 C   0  0  0  0  0  0  0  0  0  0  0  0
    4.1791    0.2739    0.0000 O   0  0  0  0  0  0  0  0  0  0  0  0
    2.9050   -0.5176    0.0000 C   0  0  0  0  0  0  0  0  0  0  0  0
    2.9534   -2.0169    0.0000 O   0  0  0  0  0  0  0  0  0  0  0  0
    1.5824    0.1900    0.0000 N   0  0  0  0  0  0  0  0  0  0  0  0
    0.3082   -0.6015    0.0000 C   0  0  0  0  0  0  0  0  0  0  0  0
    0.3566   -2.1007    0.0000 C   0  0  0  0  0  0  0  0  0  0  0  0
   -0.9175   -2.8922    0.0000 O   0  0  0  0  0  0  0  0  0  0  0  0
    1.6792   -2.8084    0.0000 O   0  0  0  0  0  0  0  0  0  0  0  0
   -1.0143    0.1062    0.0000 C   0  0  0  0  0  0  0  0  0  0  0  0
   -1.0627    1.6054    0.0000 C   0  0  0  0  0  0  0  0  0  0  0  0
    0.2114    2.3970    0.0000 C   0  0  0  0  0  0  0  0  0  0  0  0
    0.1630    3.8962    0.0000 C   0  0  0  0  0  0  0  0  0  0  0  0
   -1.1595    4.6039    0.0000 C   0  0  0  0  0  0  0  0  0  0  0  0
   -1.2079    6.1031    0.0000 F   0  0  0  0  0  0  0  0  0  0  0  0
   -2.4337    3.8123    0.0000 C   0  0  0  0  0  0  0  0  0  0  0  0
   -2.3853    2.3131    0.0000 C   0  0  0  0  0  0  0  0  0  0  0  0
   -2.2885   -0.6853    0.0000 C   0  0  0  0  0  0  0  0  0  0  0  0
   -3.6110    0.0224    0.0000 C   0  0  0  0  0  0  0  0  0  0  0  0
   -4.8852   -0.7691    0.0000 C   0  0  0  0  0  0  0  0  0  0  0  0
   -4.8368   -2.2684    0.0000 C   0  0  0  0  0  0  0  0  0  0  0  0
   -6.1110   -3.0599    0.0000 F   0  0  0  0  0  0  0  0  0  0  0  0
   -3.5142   -2.9761    0.0000 C   0  0  0  0  0  0  0  0  0  0  0  0
   -2.2401   -2.1845    0.0000 C   0  0  0  0  0  0  0  0  0  0  0  0
  1  2  1  0
  2  3  1  0
  2  4  1  0
  2  5  1  0
  5  6  1  0
  6  7  2  0
  6  8  1  0
  8  9  1  0
  9 10  1  0
 10 11  2  0
 10 12  1  0
  9 13  1  0
 13 14  1  0
 14 15  2  0
 15 16  1  0
 16 17  2  0
 17 18  1  0
 17 19  1  0
 19 20  2  0
 13 21  1  0
 21 22  2  0
 22 23  1  0
 23 24  2  0
 24 25  1  0
 24 26  1  0
 26 27  2  0
 20 14  1  0
 27 21  1  0
M  END
> <Identifier>
N-{[(1,1-Dimethylethyl)oxy] carbonyl}-4-fluoro- b-(4-fluorophenyl)-L- phenylalanine

> <SkinReaction>
0

$$$$

     RDKit          2D

 21 22  0  0  0  0  0  0  0  0999 V2000
   -0.9612   -5.0467    0.0000 O   0  0  0  0  0  0  0  0  0  0  0  0
   -1.5038   -3.6483    0.0000 C   0  0  0  0  0  0  0  0  0  0  0  0
   -0.5641   -2.4791    0.0000 N   0  0  0  0  0  0  0  0  0  0  0  0
   -1.1067   -1.0807    0.0000 C   0  0  0  0  0  0  0  0  0  0  0  0
   -2.5891   -0.8515    0.0000 C   0  0  0  0  0  0  0  0  0  0  0  0
   -3.1318    0.5469    0.0000 C   0  0  0  0  0  0  0  0  0  0  0  0
   -4.6142    0.7762    0.0000 C   0  0  0  0  0  0  0  0  0  0  0  0
   -5.5539   -0.3930    0.0000 O   0  0  0  0  0  0  0  0  0  0  0  0
   -5.1568    2.1746    0.0000 C   0  0  0  0  0  0  0  0  0  0  0  0
   -6.6392    2.4038    0.0000 Br  0  0  0  0  0  0  0  0  0  0  0  0
   -2.1921    1.7161    0.0000 C   0  0  0  0  0  0  0  0  0  0  0  0
   -0.7097    1.4868    0.0000 C   0  0  0  0  0  0  0  0  0  0  0  0
   -0.1670    0.0884    0.0000 C   0  0  0  0  0  0  0  0  0  0  0  0
    1.3154   -0.1408    0.0000 O   0  0  0  0  0  0  0  0  0  0  0  0
    2.2551    1.0283    0.0000 C   0  0  0  0  0  0  0  0  0  0  0  0
    3.7375    0.7991    0.0000 C   0  0  0  0  0  0  0  0  0  0  0  0
    4.2801   -0.5993    0.0000 C   0  0  0  0  0  0  0  0  0  0  0  0
    5.7625   -0.8286    0.0000 C   0  0  0  0  0  0  0  0  0  0  0  0
    6.7022    0.3406    0.0000 C   0  0  0  0  0  0  0  0  0  0  0  0
    6.1596    1.7390    0.0000 C   0  0  0  0  0  0  0  0  0  0  0  0
    4.6772    1.9682    0.0000 C   0  0  0  0  0  0  0  0  0  0  0  0
  1  2  2  0
  2  3  1  0
  3  4  1  0
  4  5  2  0
  5  6  1  0
  6  7  1  0
  7  8  1  0
  7  9  1  0
  9 10  1  0
  6 11  2  0
 11 12  1  0
 12 13  2  0
 13 14  1  0
 14 15  1  0
 15 16  1  0
 16 17  2  0
 17 18  1  0
 18 19  2  0
 19 20  1  0
 20 21  2  0
 13  4  1  0
 21 16  1  0
M  END
> <Identifier>
N-{2-(Benzyloxy)-5-[(1R)-2-bromo-1-hydroxyethyl]phenyl}formamide

> <SkinReaction>
0

$$$$

     RDKit          2D

 10  9  0  0  0  0  0  0  0  0999 V2000
   -5.6074   -0.1857    0.0000 C   0  0  0  0  0  0  0  0  0  0  0  0
   -4.2653    0.4843    0.0000 C   0  0  0  0  0  0  0  0  0  0  0  0
   -3.0141   -0.3430    0.0000 C   0  0  0  0  0  0  0  0  0  0  0  0
   -1.6720    0.3269    0.0000 C   0  0  0  0  0  0  0  0  0  0  0  0
   -0.4208   -0.5004    0.0000 C   0  0  0  0  0  0  0  0  0  0  0  0
    0.9213    0.1695    0.0000 C   0  0  0  0  0  0  0  0  0  0  0  0
    2.1725   -0.6578    0.0000 C   0  0  0  0  0  0  0  0  0  0  0  0
    3.5146    0.0121    0.0000 C   0  0  0  0  0  0  0  0  0  0  0  0
    3.6055    1.5094    0.0000 O   0  0  0  0  0  0  0  0  0  0  0  0
    4.7658   -0.8152    0.0000 O   0  0  0  0  0  0  0  0  0  0  0  0
  1  2  1  0
  2  3  1  0
  3  4  1  0
  4  5  1  0
  5  6  1  0
  6  7  1  0
  7  8  1  0
  8  9  2  0
  8 10  1  0
M  END
> <Identifier>
Octanoic acid

> <SkinReaction>
0

$$$$

     RDKit          2D

 24 25  0  0  0  0  0  0  0  0999 V2000
    6.5671   -2.8480    0.0000 C   0  0  0  0  0  0  0  0  0  0  0  0
    5.1778   -2.2826    0.0000 C   0  0  0  0  0  0  0  0  0  0  0  0
    4.9728   -0.7967    0.0000 O   0  0  0  0  0  0  0  0  0  0  0  0
    3.5834   -0.2312    0.0000 C   0  0  0  0  0  0  0  0  0  0  0  0
    2.3991   -1.1517    0.0000 C   0  0  0  0  0  0  0  0  0  0  0  0
    1.0097   -0.5863    0.0000 C   0  0  0  0  0  0  0  0  0  0  0  0
   -0.1746   -1.5067    0.0000 O   0  0  0  0  0  0  0  0  0  0  0  0
   -1.5640   -0.9413    0.0000 C   0  0  0  0  0  0  0  0  0  0  0  0
   -1.7689    0.5446    0.0000 C   0  0  0  0  0  0  0  0  0  0  0  0
   -3.1583    1.1101    0.0000 C   0  0  0  0  0  0  0  0  0  0  0  0
   -4.3426    0.1896    0.0000 C   0  0  0  0  0  0  0  0  0  0  0  0
   -5.7320    0.7550    0.0000 C   0  0  0  0  0  0  0  0  0  0  0  0
   -7.1213    1.3205    0.0000 F   0  0  0  0  0  0  0  0  0  0  0  0
   -5.1666    2.1444    0.0000 F   0  0  0  0  0  0  0  0  0  0  0  0
   -6.2974   -0.6343    0.0000 F   0  0  0  0  0  0  0  0  0  0  0  0
   -4.1377   -1.2964    0.0000 C   0  0  0  0  0  0  0  0  0  0  0  0
   -2.7483   -1.8618    0.0000 C   0  0  0  0  0  0  0  0  0  0  0  0
   -2.5433   -3.3477    0.0000 Cl  0  0  0  0  0  0  0  0  0  0  0  0
    0.8048    0.8997    0.0000 C   0  0  0  0  0  0  0  0  0  0  0  0
    1.9891    1.8202    0.0000 C   0  0  0  0  0  0  0  0  0  0  0  0
    3.3785    1.2547    0.0000 C   0  0  0  0  0  0  0  0  0  0  0  0
    4.5628    2.1752    0.0000 N   0  0  0  0  0  4  0  0  0  0  0  0
    4.3578    3.6611    0.0000 O   0  0  0  0  0  0  0  0  0  0  0  0
    5.9522    1.6098    0.0000 O   0  0  0  0  0  1  0  0  0  0  0  0
  1  2  1  0
  2  3  1  0
  3  4  1  0
  4  5  2  0
  5  6  1  0
  6  7  1  0
  7  8  1  0
  8  9  2  0
  9 10  1  0
 10 11  2  0
 11 12  1  0
 12 13  1  0
 12 14  1  0
 12 15  1  0
 11 16  1  0
 16 17  2  0
 17 18  1  0
  6 19  2  0
 19 20  1  0
 20 21  2  0
 21 22  1  0
 22 23  2  0
 22 24  1  0
 21  4  1  0
 17  8  1  0
M  CHG  2  22   1  24  -1
M  END
> <Identifier>
Oxyfluorfen

> <SkinReaction>
0

$$$$

     RDKit          2D

 21 20  0  0  0  0  0  0  0  0999 V2000
    4.0586    4.7362    0.0000 C   0  0  0  0  0  0  0  0  0  0  0  0
    3.5386    3.3292    0.0000 C   0  0  0  0  0  0  0  0  0  0  0  0
    2.0601    3.0760    0.0000 C   0  0  0  0  0  0  0  0  0  0  0  0
    1.1016    4.2299    0.0000 O   0  0  0  0  0  0  0  0  0  0  0  0
    1.5401    1.6690    0.0000 O   0  0  0  0  0  0  0  0  0  0  0  0
    0.0616    1.4159    0.0000 C   0  0  0  0  0  0  0  0  0  0  0  0
   -0.4584    0.0089    0.0000 C   0  0  0  0  0  0  0  0  0  0  0  0
   -0.9783   -1.3981    0.0000 C   0  0  0  0  0  0  0  0  0  0  0  0
   -0.0199   -2.5519    0.0000 O   0  0  0  0  0  0  0  0  0  0  0  0
    0.9486   -0.5111    0.0000 C   0  0  0  0  0  0  0  0  0  0  0  0
    1.2018   -1.9896    0.0000 O   0  0  0  0  0  0  0  0  0  0  0  0
    2.6088   -2.5096    0.0000 C   0  0  0  0  0  0  0  0  0  0  0  0
    3.7626   -1.5511    0.0000 O   0  0  0  0  0  0  0  0  0  0  0  0
    2.8620   -3.9881    0.0000 C   0  0  0  0  0  0  0  0  0  0  0  0
    4.2689   -4.5080    0.0000 C   0  0  0  0  0  0  0  0  0  0  0  0
   -1.8653    0.5289    0.0000 C   0  0  0  0  0  0  0  0  0  0  0  0
   -3.0192   -0.4296    0.0000 O   0  0  0  0  0  0  0  0  0  0  0  0
   -4.4261    0.0904    0.0000 C   0  0  0  0  0  0  0  0  0  0  0  0
   -4.6793    1.5689    0.0000 O   0  0  0  0  0  0  0  0  0  0  0  0
   -5.5800   -0.8681    0.0000 C   0  0  0  0  0  0  0  0  0  0  0  0
   -6.9869   -0.3481    0.0000 C   0  0  0  0  0  0  0  0  0  0  0  0
  1  2  2  0
  2  3  1  0
  3  4  2  0
  3  5  1  0
  5  6  1  0
  6  7  1  0
  7  8  1  0
  8  9  1  0
  7 10  1  0
 10 11  1  0
 11 12  1  0
 12 13  2  0
 12 14  1  0
 14 15  2  0
  7 16  1  0
 16 17  1  0
 17 18  1  0
 18 19  2  0
 18 20  1  0
 20 21  2  0
M  END
> <Identifier>
Pentaerythritol triacrylate

> <SkinReaction>
0

$$$$

     RDKit          2D

 25 27  0  0  0  0  0  0  0  0999 V2000
   -4.9793   -0.4720    0.0000 C   0  0  0  0  0  0  0  0  0  0  0  0
   -4.0224    0.6832    0.0000 C   0  0  0  0  0  0  0  0  0  0  0  0
   -4.5443    2.0894    0.0000 C   0  0  0  0  0  0  0  0  0  0  0  0
   -3.5874    3.2446    0.0000 C   0  0  0  0  0  0  0  0  0  0  0  0
   -4.1093    4.6508    0.0000 F   0  0  0  0  0  0  0  0  0  0  0  0
   -2.1085    2.9934    0.0000 C   0  0  0  0  0  0  0  0  0  0  0  0
   -1.5867    1.5871    0.0000 C   0  0  0  0  0  0  0  0  0  0  0  0
   -2.5436    0.4320    0.0000 C   0  0  0  0  0  0  0  0  0  0  0  0
   -2.0217   -0.9743    0.0000 C   0  0  0  0  0  0  0  0  0  0  0  0
   -2.9786   -2.1294    0.0000 C   0  0  0  0  0  0  0  0  0  0  0  0
   -2.4567   -3.5357    0.0000 C   0  0  0  0  0  0  0  0  0  0  0  0
   -3.4136   -4.6908    0.0000 O   0  0  0  0  0  0  0  0  0  0  0  0
   -0.9779   -3.7868    0.0000 C   0  0  0  0  0  0  0  0  0  0  0  0
   -0.0210   -2.6317    0.0000 C   0  0  0  0  0  0  0  0  0  0  0  0
   -0.5429   -1.2254    0.0000 N   0  0  0  0  0  0  0  0  0  0  0  0
    0.4141   -0.0703    0.0000 C   0  0  0  0  0  0  0  0  0  0  0  0
   -0.1078    1.3360    0.0000 O   0  0  0  0  0  0  0  0  0  0  0  0
    1.8929   -0.3215    0.0000 O   0  0  0  0  0  0  0  0  0  0  0  0
    2.8498    0.8336    0.0000 C   0  0  0  0  0  0  0  0  0  0  0  0
    4.3286    0.5825    0.0000 C   0  0  0  0  0  0  0  0  0  0  0  0
    4.8505   -0.8238    0.0000 C   0  0  0  0  0  0  0  0  0  0  0  0
    6.3294   -1.0750    0.0000 C   0  0  0  0  0  0  0  0  0  0  0  0
    7.2863    0.0801    0.0000 C   0  0  0  0  0  0  0  0  0  0  0  0
    6.7644    1.4864    0.0000 C   0  0  0  0  0  0  0  0  0  0  0  0
    5.2856    1.7376    0.0000 C   0  0  0  0  0  0  0  0  0  0  0  0
  1  2  1  0
  2  3  2  0
  3  4  1  0
  4  5  1  0
  4  6  2  0
  6  7  1  0
  7  8  2  0
  8  9  1  0
  9 10  1  0
 10 11  1  0
 11 12  2  0
 11 13  1  0
 13 14  2  0
 14 15  1  0
 15 16  1  0
 16 17  2  0
 16 18  1  0
 18 19  1  0
 19 20  1  0
 20 21  2  0
 21 22  1  0
 22 23  2  0
 23 24  1  0
 24 25  2  0
  8  2  1  0
 15  9  1  0
 25 20  1  0
M  END
> <Identifier>
Phenylmethyl 2-(4-fluoro-2-methylphenyl)-4-oxo-3,4-dihydro-1 (2H)-pyridine-carboxylate

> <SkinReaction>
0

$$$$

     RDKit          2D

  5  4  0  0  0  0  0  0  0  0999 V2000
   -1.8187   -0.7500    0.0000 C   0  0  0  0  0  0  0  0  0  0  0  0
   -0.5196    0.0000    0.0000 C   0  0  0  0  0  0  0  0  0  0  0  0
   -0.5196    1.5000    0.0000 O   0  0  0  0  0  0  0  0  0  0  0  0
    0.7794   -0.7500    0.0000 C   0  0  0  0  0  0  0  0  0  0  0  0
    2.0785   -0.0000    0.0000 O   0  0  0  0  0  0  0  0  0  0  0  0
  1  2  1  0
  2  3  1  0
  2  4  1  0
  4  5  1  0
M  END
> <Identifier>
Propylene glycol

> <SkinReaction>
0

$$$$

     RDKit          2D

 13 13  0  0  0  0  0  0  0  0999 V2000
   -5.8399    0.5817    0.0000 C   0  0  0  0  0  0  0  0  0  0  0  0
   -4.3928    0.9765    0.0000 C   0  0  0  0  0  0  0  0  0  0  0  0
   -3.3273   -0.0793    0.0000 C   0  0  0  0  0  0  0  0  0  0  0  0
   -1.8802    0.3156    0.0000 O   0  0  0  0  0  0  0  0  0  0  0  0
   -0.8147   -0.7402    0.0000 C   0  0  0  0  0  0  0  0  0  0  0  0
   -1.1962   -2.1908    0.0000 O   0  0  0  0  0  0  0  0  0  0  0  0
    0.6324   -0.3453    0.0000 C   0  0  0  0  0  0  0  0  0  0  0  0
    1.0140    1.1053    0.0000 C   0  0  0  0  0  0  0  0  0  0  0  0
    2.4611    1.5002    0.0000 C   0  0  0  0  0  0  0  0  0  0  0  0
    3.5266    0.4444    0.0000 C   0  0  0  0  0  0  0  0  0  0  0  0
    4.9737    0.8393    0.0000 O   0  0  0  0  0  0  0  0  0  0  0  0
    3.1450   -1.0063    0.0000 C   0  0  0  0  0  0  0  0  0  0  0  0
    1.6980   -1.4011    0.0000 C   0  0  0  0  0  0  0  0  0  0  0  0
  1  2  1  0
  2  3  1  0
  3  4  1  0
  4  5  1  0
  5  6  2  0
  5  7  1  0
  7  8  2  0
  8  9  1  0
  9 10  2  0
 10 11  1  0
 10 12  1  0
 12 13  2  0
 13  7  1  0
M  END
> <Identifier>
Propylparaben

> <SkinReaction>
0

$$$$

     RDKit          2D

 20 22  0  0  0  0  0  0  0  0999 V2000
   -6.6301   -0.2385    0.0000 F   0  0  0  0  0  0  0  0  0  0  0  0
   -5.1553    0.0350    0.0000 C   0  0  0  0  0  0  0  0  0  0  0  0
   -4.6547    1.4490    0.0000 C   0  0  0  0  0  0  0  0  0  0  0  0
   -3.1798    1.7225    0.0000 C   0  0  0  0  0  0  0  0  0  0  0  0
   -2.2056    0.5819    0.0000 C   0  0  0  0  0  0  0  0  0  0  0  0
   -0.7307    0.8554    0.0000 O   0  0  0  0  0  0  0  0  0  0  0  0
    0.2436   -0.2851    0.0000 C   0  0  0  0  0  0  0  0  0  0  0  0
   -0.2570   -1.6991    0.0000 C   0  0  0  0  0  0  0  0  0  0  0  0
    0.7172   -2.8397    0.0000 C   0  0  0  0  0  0  0  0  0  0  0  0
    2.1921   -2.5662    0.0000 N   0  0  0  0  0  0  0  0  0  0  0  0
    2.6927   -1.1522    0.0000 C   0  0  0  0  0  0  0  0  0  0  0  0
    4.1676   -0.8787    0.0000 C   0  0  0  0  0  0  0  0  0  0  0  0
    4.6681    0.5353    0.0000 C   0  0  0  0  0  0  0  0  0  0  0  0
    6.1430    0.8088    0.0000 Cl  0  0  0  0  0  0  0  0  0  0  0  0
    3.6939    1.6758    0.0000 C   0  0  0  0  0  0  0  0  0  0  0  0
    2.2190    1.4023    0.0000 C   0  0  0  0  0  0  0  0  0  0  0  0
    1.2448    2.5429    0.0000 Cl  0  0  0  0  0  0  0  0  0  0  0  0
    1.7184   -0.0117    0.0000 C   0  0  0  0  0  0  0  0  0  0  0  0
   -2.7062   -0.8321    0.0000 C   0  0  0  0  0  0  0  0  0  0  0  0
   -4.1810   -1.1056    0.0000 C   0  0  0  0  0  0  0  0  0  0  0  0
  1  2  1  0
  2  3  2  0
  3  4  1  0
  4  5  2  0
  5  6  1  0
  6  7  1  0
  7  8  2  0
  8  9  1  0
  9 10  2  0
 10 11  1  0
 11 12  2  0
 12 13  1  0
 13 14  1  0
 13 15  2  0
 15 16  1  0
 16 17  1  0
 16 18  2  0
  5 19  1  0
 19 20  2  0
 20  2  1  0
 18  7  1  0
 18 11  1  0
M  END
> <Identifier>
Quinoxyfen

> <SkinReaction>
0

$$$$

     RDKit          2D

 50 53  0  0  0  0  0  0  0  0999 V2000
    4.1232   -6.5571    0.0000 C   0  0  0  0  0  0  0  0  0  0  0  0
    4.5812   -5.1287    0.0000 O   0  0  0  0  0  0  0  0  0  0  0  0
    3.5732   -4.0179    0.0000 C   0  0  0  0  0  0  0  0  0  0  0  0
    2.3403   -4.8723    0.0000 C   0  0  0  0  0  0  0  0  0  0  0  0
    0.9283   -5.3785    0.0000 C   0  0  0  0  0  0  0  0  0  0  0  0
   -0.5666   -5.5020    0.0000 O   0  0  0  0  0  0  0  0  0  0  0  0
   -2.6068   -4.1375    0.0000 C   0  0  0  0  0  0  0  0  0  0  0  0
   -1.4085   -5.0397    0.0000 C   0  0  0  0  0  0  0  0  0  0  0  0
   -4.0411   -4.5767    0.0000 O   0  0  0  0  0  0  0  0  0  0  0  0
   -4.9020   -3.3483    0.0000 C   0  0  0  0  0  0  0  0  0  0  0  0
   -6.3909   -3.1662    0.0000 C   0  0  0  0  0  0  0  0  0  0  0  0
   -7.2931   -4.3645    0.0000 C   0  0  0  0  0  0  0  0  0  0  0  0
   -6.9776   -1.7857    0.0000 C   0  0  0  0  0  0  0  0  0  0  0  0
   -8.4664   -1.6035    0.0000 O   0  0  0  0  0  0  0  0  0  0  0  0
   -6.0753   -0.5873    0.0000 C   0  0  0  0  0  0  0  0  0  0  0  0
   -6.6620    0.7932    0.0000 C   0  0  0  0  0  0  0  0  0  0  0  0
   -8.1509    0.9754    0.0000 O   0  0  0  0  0  0  0  0  0  0  0  0
   -5.7598    1.9915    0.0000 C   0  0  0  0  0  0  0  0  0  0  0  0
   -4.2709    1.8094    0.0000 C   0  0  0  0  0  0  0  0  0  0  0  0
   -3.6842    0.4289    0.0000 C   0  0  0  0  0  0  0  0  0  0  0  0
   -2.1953    0.2467    0.0000 O   0  0  0  0  0  0  0  0  0  0  0  0
   -4.5864   -0.7695    0.0000 C   0  0  0  0  0  0  0  0  0  0  0  0
   -3.9998   -2.1500    0.0000 C   0  0  0  0  0  0  0  0  0  0  0  0
   -2.5813   -2.6377    0.0000 C   0  0  0  0  0  0  0  0  0  0  0  0
   -1.3529   -1.7768    0.0000 O   0  0  0  0  0  0  0  0  0  0  0  0
   -5.1193    3.3479    0.0000 N   0  0  0  0  0  0  0  0  0  0  0  0
   -4.1496    4.4923    0.0000 C   0  0  0  0  0  0  0  0  0  0  0  0
   -5.1576    5.6031    0.0000 O   0  0  0  0  0  0  0  0  0  0  0  0
   -2.9167    5.3467    0.0000 C   0  0  0  0  0  0  0  0  0  0  0  0
   -3.6029    6.6806    0.0000 C   0  0  0  0  0  0  0  0  0  0  0  0
   -1.5047    5.8529    0.0000 C   0  0  0  0  0  0  0  0  0  0  0  0
   -0.0098    5.9764    0.0000 C   0  0  0  0  0  0  0  0  0  0  0  0
    1.4661    5.7088    0.0000 C   0  0  0  0  0  0  0  0  0  0  0  0
    2.8225    5.0683    0.0000 C   0  0  0  0  0  0  0  0  0  0  0  0
    3.6346    6.3295    0.0000 C   0  0  0  0  0  0  0  0  0  0  0  0
    3.9669    4.0986    0.0000 C   0  0  0  0  0  0  0  0  0  0  0  0
    5.0777    5.1066    0.0000 O   0  0  0  0  0  0  0  0  0  0  0  0
    4.8213    2.8657    0.0000 C   0  0  0  0  0  0  0  0  0  0  0  0
    6.1552    3.5519    0.0000 C   0  0  0  0  0  0  0  0  0  0  0  0
    5.3275    1.4537    0.0000 C   0  0  0  0  0  0  0  0  0  0  0  0
    6.7935    1.7713    0.0000 O   0  0  0  0  0  0  0  0  0  0  0  0
    5.4510   -0.0412    0.0000 C   0  0  0  0  0  0  0  0  0  0  0  0
    6.9493   -0.1139    0.0000 C   0  0  0  0  0  0  0  0  0  0  0  0
    5.1834   -1.5171    0.0000 C   0  0  0  0  0  0  0  0  0  0  0  0
    6.6118   -1.9751    0.0000 O   0  0  0  0  0  0  0  0  0  0  0  0
    7.7226   -0.9671    0.0000 C   0  0  0  0  0  0  0  0  0  0  0  0
    7.4050    0.4989    0.0000 C   0  0  0  0  0  0  0  0  0  0  0  0
    9.1510   -1.4250    0.0000 O   0  0  0  0  0  0  0  0  0  0  0  0
    4.5429   -2.8735    0.0000 C   0  0  0  0  0  0  0  0  0  0  0  0
    5.8041   -3.6856    0.0000 C   0  0  0  0  0  0  0  0  0  0  0  0
  1  2  1  0
  2  3  1  0
  3  4  1  0
  4  5  2  3
  5  6  1  0
  6  7  1  0
  7  8  1  0
  7  9  1  0
  9 10  1  0
 10 11  2  0
 11 12  1  0
 11 13  1  0
 13 14  1  0
 13 15  2  0
 15 16  1  0
 16 17  1  0
 16 18  2  0
 18 19  1  0
 19 20  2  0
 20 21  1  0
 20 22  1  0
 22 23  2  0
 23 24  1  0
 24 25  2  0
 18 26  1  0
 26 27  1  0
 27 28  2  0
 27 29  1  0
 29 30  1  0
 29 31  2  3
 31 32  1  0
 32 33  2  3
 33 34  1  0
 34 35  1  0
 34 36  1  0
 36 37  1  0
 36 38  1  0
 38 39  1  0
 38 40  1  0
 40 41  1  0
 40 42  1  0
 42 43  1  0
 42 44  1  0
 44 45  1  0
 45 46  1  0
 46 47  1  0
 46 48  2  0
 44 49  1  0
 49 50  1  0
 49  3  1  0
 24  7  1  0
 23 10  1  0
 22 15  1  0
M  END
> <Identifier>
Rifamycin

> <SkinReaction>
0

$$$$

     RDKit          2D

 12 13  0  0  0  0  0  0  0  0999 V2000
   -1.1110    3.0570    0.0000 O   0  0  0  0  0  0  0  0  0  0  0  0
   -0.9191    1.5694    0.0000 C   0  0  0  0  0  0  0  0  0  0  0  0
   -2.0099    0.5397    0.0000 N   0  0  0  0  0  0  0  0  0  0  0  0
   -1.3677   -0.8159    0.0000 S   0  0  0  0  0  0  0  0  0  0  0  0
   -1.0213   -2.2753    0.0000 O   0  0  0  0  0  0  0  0  0  0  0  0
   -2.7829   -1.3129    0.0000 O   0  0  0  0  0  0  0  0  0  0  0  0
    0.1200   -0.6240    0.0000 C   0  0  0  0  0  0  0  0  0  0  0  0
    1.2581   -1.6012    0.0000 C   0  0  0  0  0  0  0  0  0  0  0  0
    2.6733   -1.1042    0.0000 C   0  0  0  0  0  0  0  0  0  0  0  0
    2.9506    0.3700    0.0000 C   0  0  0  0  0  0  0  0  0  0  0  0
    1.8125    1.3472    0.0000 C   0  0  0  0  0  0  0  0  0  0  0  0
    0.3973    0.8502    0.0000 C   0  0  0  0  0  0  0  0  0  0  0  0
  1  2  2  0
  2  3  1  0
  3  4  1  0
  4  5  2  0
  4  6  2  0
  4  7  1  0
  7  8  2  0
  8  9  1  0
  9 10  2  0
 10 11  1  0
 11 12  2  0
 12  2  1  0
 12  7  1  0
M  END
> <Identifier>
Saccharin

> <SkinReaction>
0

$$$$

     RDKit          2D

 10 10  0  0  0  0  0  0  0  0999 V2000
    2.5988    0.9104    0.0000 O   0  0  0  0  0  0  0  0  0  0  0  0
    1.7848   -0.3495    0.0000 C   0  0  0  0  0  0  0  0  0  0  0  0
    2.4688   -1.6844    0.0000 O   0  0  0  0  0  0  0  0  0  0  0  0
    0.2866   -0.2745    0.0000 C   0  0  0  0  0  0  0  0  0  0  0  0
   -0.5274   -1.5344    0.0000 C   0  0  0  0  0  0  0  0  0  0  0  0
   -2.0255   -1.4594    0.0000 C   0  0  0  0  0  0  0  0  0  0  0  0
   -2.7096   -0.1244    0.0000 C   0  0  0  0  0  0  0  0  0  0  0  0
   -1.8956    1.1355    0.0000 C   0  0  0  0  0  0  0  0  0  0  0  0
   -0.3975    1.0604    0.0000 C   0  0  0  0  0  0  0  0  0  0  0  0
    0.4166    2.3203    0.0000 O   0  0  0  0  0  0  0  0  0  0  0  0
  1  2  2  0
  2  3  1  0
  2  4  1  0
  4  5  2  0
  5  6  1  0
  6  7  2  0
  7  8  1  0
  8  9  2  0
  9 10  1  0
  9  4  1  0
M  END
> <Identifier>
Salicylic acid

> <SkinReaction>
0

$$$$

     RDKit          2D

  8  7  0  0  0  0  0  0  0  0999 V2000
    2.2678   -1.4730    0.0000 O   0  0  0  0  0  0  0  0  0  0  0  0
    1.9843   -0.0000    0.0000 C   0  0  0  0  0  0  0  0  0  0  0  0
    3.1182    0.9820    0.0000 O   0  0  0  0  0  0  0  0  0  0  0  0
    0.5669    0.4910    0.0000 C   0  0  0  0  0  0  0  0  0  0  0  0
   -0.5669   -0.4910    0.0000 C   0  0  0  0  0  0  0  0  0  0  0  0
   -1.9843    0.0000    0.0000 C   0  0  0  0  0  0  0  0  0  0  0  0
   -2.2678    1.4730    0.0000 O   0  0  0  0  0  0  0  0  0  0  0  0
   -3.1182   -0.9820    0.0000 O   0  0  0  0  0  0  0  0  0  0  0  0
  1  2  2  0
  2  3  1  0
  2  4  1  0
  4  5  1  0
  5  6  1  0
  6  7  2  0
  6  8  1  0
M  END
> <Identifier>
Succinic Acid

> <SkinReaction>
0

$$$$

     RDKit          2D

 11 11  0  0  0  0  0  0  0  0999 V2000
    3.9545    0.0000    0.0000 N   0  0  0  0  0  0  0  0  0  0  0  0
    2.4545   -0.0000    0.0000 C   0  0  0  0  0  0  0  0  0  0  0  0
    1.7045   -1.2990    0.0000 C   0  0  0  0  0  0  0  0  0  0  0  0
    0.2045   -1.2990    0.0000 C   0  0  0  0  0  0  0  0  0  0  0  0
   -0.5455    0.0000    0.0000 C   0  0  0  0  0  0  0  0  0  0  0  0
   -2.0455    0.0000    0.0000 S   0  0  0  0  0  0  0  0  0  0  0  0
   -3.5455   -0.0000    0.0000 N   0  0  0  0  0  0  0  0  0  0  0  0
   -2.0455    1.5000    0.0000 O   0  0  0  0  0  0  0  0  0  0  0  0
   -2.0455   -1.5000    0.0000 O   0  0  0  0  0  0  0  0  0  0  0  0
    0.2045    1.2990    0.0000 C   0  0  0  0  0  0  0  0  0  0  0  0
    1.7045    1.2990    0.0000 C   0  0  0  0  0  0  0  0  0  0  0  0
  1  2  1  0
  2  3  2  0
  3  4  1  0
  4  5  2  0
  5  6  1  0
  6  7  1  0
  6  8  2  0
  6  9  2  0
  5 10  1  0
 10 11  2  0
 11  2  1  0
M  END
> <Identifier>
Sulfanilamide

> <SkinReaction>
0

$$$$

     RDKit          2D

 11 11  0  0  0  0  0  0  0  0999 V2000
    3.9545    0.0000    0.0000 N   0  0  0  0  0  0  0  0  0  0  0  0
    2.4545   -0.0000    0.0000 C   0  0  0  0  0  0  0  0  0  0  0  0
    1.7045   -1.2990    0.0000 C   0  0  0  0  0  0  0  0  0  0  0  0
    0.2045   -1.2990    0.0000 C   0  0  0  0  0  0  0  0  0  0  0  0
   -0.5455    0.0000    0.0000 C   0  0  0  0  0  0  0  0  0  0  0  0
   -2.0455    0.0000    0.0000 S   0  0  0  0  0  0  0  0  0  0  0  0
   -2.0455    1.5000    0.0000 O   0  0  0  0  0  0  0  0  0  0  0  0
   -2.0455   -1.5000    0.0000 O   0  0  0  0  0  0  0  0  0  0  0  0
   -3.5455   -0.0000    0.0000 O   0  0  0  0  0  0  0  0  0  0  0  0
    0.2045    1.2990    0.0000 C   0  0  0  0  0  0  0  0  0  0  0  0
    1.7045    1.2990    0.0000 C   0  0  0  0  0  0  0  0  0  0  0  0
  1  2  1  0
  2  3  2  0
  3  4  1  0
  4  5  2  0
  5  6  1  0
  6  7  2  0
  6  8  2  0
  6  9  1  0
  5 10  1  0
 10 11  2  0
 11  2  1  0
M  END
> <Identifier>
Sulfanilic acid

> <SkinReaction>
0

$$$$

     RDKit          2D

 10  9  0  0  0  0  0  0  0  0999 V2000
   -2.1971   -1.5765    0.0000 O   0  0  0  0  0  0  0  0  0  0  0  0
   -1.9822   -0.0920    0.0000 C   0  0  0  0  0  0  0  0  0  0  0  0
   -3.1604    0.8364    0.0000 O   0  0  0  0  0  0  0  0  0  0  0  0
   -0.5891    0.4642    0.0000 C   0  0  0  0  0  0  0  0  0  0  0  0
   -0.3742    1.9487    0.0000 O   0  0  0  0  0  0  0  0  0  0  0  0
    0.5891   -0.4642    0.0000 C   0  0  0  0  0  0  0  0  0  0  0  0
    0.3742   -1.9487    0.0000 O   0  0  0  0  0  0  0  0  0  0  0  0
    1.9822    0.0920    0.0000 C   0  0  0  0  0  0  0  0  0  0  0  0
    2.1971    1.5765    0.0000 O   0  0  0  0  0  0  0  0  0  0  0  0
    3.1604   -0.8364    0.0000 O   0  0  0  0  0  0  0  0  0  0  0  0
  1  2  2  0
  2  3  1  0
  2  4  1  0
  4  5  1  0
  4  6  1  0
  6  7  1  0
  6  8  1  0
  8  9  2  0
  8 10  1  0
M  END
> <Identifier>
Tartaric acid

> <SkinReaction>
0

$$$$

     RDKit          2D

 14 14  0  0  0  0  0  0  0  0999 V2000
   -3.6570    1.5673    0.0000 C   0  0  0  0  0  0  0  0  0  0  0  0
   -3.1969    0.1396    0.0000 C   0  0  0  0  0  0  0  0  0  0  0  0
   -2.7368   -1.2881    0.0000 C   0  0  0  0  0  0  0  0  0  0  0  0
   -4.6246   -0.3205    0.0000 C   0  0  0  0  0  0  0  0  0  0  0  0
   -1.7692    0.5997    0.0000 O   0  0  0  0  0  0  0  0  0  0  0  0
   -0.6569   -0.4067    0.0000 C   0  0  0  0  0  0  0  0  0  0  0  0
   -0.9723   -1.8732    0.0000 O   0  0  0  0  0  0  0  0  0  0  0  0
    0.7708    0.0534    0.0000 C   0  0  0  0  0  0  0  0  0  0  0  0
    1.0862    1.5199    0.0000 C   0  0  0  0  0  0  0  0  0  0  0  0
    2.5138    1.9800    0.0000 C   0  0  0  0  0  0  0  0  0  0  0  0
    3.6262    0.9736    0.0000 C   0  0  0  0  0  0  0  0  0  0  0  0
    3.3108   -0.4928    0.0000 C   0  0  0  0  0  0  0  0  0  0  0  0
    4.4231   -1.4992    0.0000 N   0  0  0  0  0  0  0  0  0  0  0  0
    1.8831   -0.9529    0.0000 C   0  0  0  0  0  0  0  0  0  0  0  0
  1  2  1  0
  2  3  1  0
  2  4  1  0
  2  5  1  0
  5  6  1  0
  6  7  2  0
  6  8  1  0
  8  9  2  0
  9 10  1  0
 10 11  2  0
 11 12  1  0
 12 13  1  0
 12 14  2  0
 14  8  1  0
M  END
> <Identifier>
tert-Butyl 3-Aminobenzoate

> <SkinReaction>
0

$$$$

     RDKit          2D

 21 20  0  0  0  0  0  0  0  0999 V2000
    4.0586    4.7362    0.0000 C   0  0  0  0  0  0  0  0  0  0  0  0
    3.5386    3.3292    0.0000 C   0  0  0  0  0  0  0  0  0  0  0  0
    2.0601    3.0760    0.0000 C   0  0  0  0  0  0  0  0  0  0  0  0
    1.1016    4.2299    0.0000 O   0  0  0  0  0  0  0  0  0  0  0  0
    1.5401    1.6690    0.0000 O   0  0  0  0  0  0  0  0  0  0  0  0
    0.0616    1.4159    0.0000 C   0  0  0  0  0  0  0  0  0  0  0  0
   -0.4584    0.0089    0.0000 C   0  0  0  0  0  0  0  0  0  0  0  0
   -0.9783   -1.3981    0.0000 C   0  0  0  0  0  0  0  0  0  0  0  0
   -0.0199   -2.5519    0.0000 C   0  0  0  0  0  0  0  0  0  0  0  0
    0.9486   -0.5111    0.0000 C   0  0  0  0  0  0  0  0  0  0  0  0
    1.2018   -1.9896    0.0000 O   0  0  0  0  0  0  0  0  0  0  0  0
    2.6088   -2.5096    0.0000 C   0  0  0  0  0  0  0  0  0  0  0  0
    3.7626   -1.5511    0.0000 O   0  0  0  0  0  0  0  0  0  0  0  0
    2.8620   -3.9881    0.0000 C   0  0  0  0  0  0  0  0  0  0  0  0
    4.2689   -4.5080    0.0000 C   0  0  0  0  0  0  0  0  0  0  0  0
   -1.8653    0.5289    0.0000 C   0  0  0  0  0  0  0  0  0  0  0  0
   -3.0192   -0.4296    0.0000 O   0  0  0  0  0  0  0  0  0  0  0  0
   -4.4261    0.0904    0.0000 C   0  0  0  0  0  0  0  0  0  0  0  0
   -4.6793    1.5689    0.0000 O   0  0  0  0  0  0  0  0  0  0  0  0
   -5.5800   -0.8681    0.0000 C   0  0  0  0  0  0  0  0  0  0  0  0
   -6.9869   -0.3481    0.0000 C   0  0  0  0  0  0  0  0  0  0  0  0
  1  2  2  0
  2  3  1  0
  3  4  2  0
  3  5  1  0
  5  6  1  0
  6  7  1  0
  7  8  1  0
  8  9  1  0
  7 10  1  0
 10 11  1  0
 11 12  1  0
 12 13  2  0
 12 14  1  0
 14 15  2  0
  7 16  1  0
 16 17  1  0
 17 18  1  0
 18 19  2  0
 18 20  1  0
 20 21  2  0
M  END
> <Identifier>
Ethyl-2-(Hydroxymethyl)-1,3-Propanediol Triacrylate

> <SkinReaction>
0

$$$$

     RDKit          2D

 11 11  0  0  0  0  0  0  0  0999 V2000
    2.5114   -2.4914    0.0000 C   0  0  0  0  0  0  0  0  0  0  0  0
    2.4926   -0.9915    0.0000 O   0  0  0  0  0  0  0  0  0  0  0  0
    1.1843   -0.2579    0.0000 C   0  0  0  0  0  0  0  0  0  0  0  0
   -0.1053   -1.0241    0.0000 C   0  0  0  0  0  0  0  0  0  0  0  0
   -1.4136   -0.2905    0.0000 C   0  0  0  0  0  0  0  0  0  0  0  0
   -2.7031   -1.0567    0.0000 C   0  0  0  0  0  0  0  0  0  0  0  0
   -4.0115   -0.3231    0.0000 O   0  0  0  0  0  0  0  0  0  0  0  0
   -1.4324    1.2094    0.0000 C   0  0  0  0  0  0  0  0  0  0  0  0
   -0.1429    1.9756    0.0000 C   0  0  0  0  0  0  0  0  0  0  0  0
    1.1655    1.2420    0.0000 C   0  0  0  0  0  0  0  0  0  0  0  0
    2.4550    2.0082    0.0000 O   0  0  0  0  0  0  0  0  0  0  0  0
  1  2  1  0
  2  3  1  0
  3  4  2  0
  4  5  1  0
  5  6  1  0
  6  7  2  0
  5  8  2  0
  8  9  1  0
  9 10  2  0
 10 11  1  0
 10  3  1  0
M  END
> <Identifier>
Vanillin

> <SkinReaction>
0

$$$$

     RDKit          2D

  4  3  0  0  0  0  0  0  0  0999 V2000
   -1.2990   -0.7500    0.0000 C   0  0  0  0  0  0  0  0  0  0  0  0
    0.0000    0.0000    0.0000 C   0  0  0  0  0  0  0  0  0  0  0  0
    1.2990   -0.7500    0.0000 Cl  0  0  0  0  0  0  0  0  0  0  0  0
    0.0000    1.5000    0.0000 Cl  0  0  0  0  0  0  0  0  0  0  0  0
  1  2  2  0
  2  3  1  0
  2  4  1  0
M  END
> <Identifier>
Vinylidene dichloride

> <SkinReaction>
0

$$$$

     RDKit          2D

 11 10  0  0  0  0  0  0  0  0999 V2000
   -6.4952   -0.3409    0.0000 C   0  0  0  0  0  0  0  0  0  0  0  0
   -5.1962    0.4091    0.0000 C   0  0  0  0  0  0  0  0  0  0  0  0
   -3.8971   -0.3409    0.0000 C   0  0  0  0  0  0  0  0  0  0  0  0
   -2.5981    0.4091    0.0000 C   0  0  0  0  0  0  0  0  0  0  0  0
   -1.2990   -0.3409    0.0000 C   0  0  0  0  0  0  0  0  0  0  0  0
    0.0000    0.4091    0.0000 C   0  0  0  0  0  0  0  0  0  0  0  0
    1.2990   -0.3409    0.0000 C   0  0  0  0  0  0  0  0  0  0  0  0
    2.5981    0.4091    0.0000 C   0  0  0  0  0  0  0  0  0  0  0  0
    3.8971   -0.3409    0.0000 C   0  0  0  0  0  0  0  0  0  0  0  0
    5.1962    0.4091    0.0000 C   0  0  0  0  0  0  0  0  0  0  0  0
    6.4952   -0.3409    0.0000 O   0  0  0  0  0  0  0  0  0  0  0  0
  1  2  1  0
  2  3  1  0
  3  4  1  0
  4  5  1  0
  5  6  1  0
  6  7  1  0
  7  8  1  0
  8  9  2  3
  9 10  1  0
 10 11  2  0
M  END
> <Identifier>
(2E)-2-Decenal

> <SkinReaction>
1

$$$$

     RDKit          2D

 11 11  0  0  0  0  0  0  0  0999 V2000
   -4.9158    0.0902    0.0000 C   0  0  0  0  0  0  0  0  0  0  0  0
   -3.4534    0.4237    0.0000 C   0  0  0  0  0  0  0  0  0  0  0  0
   -2.4333   -0.6760    0.0000 C   0  0  0  0  0  0  0  0  0  0  0  0
   -0.9709   -0.3425    0.0000 C   0  0  0  0  0  0  0  0  0  0  0  0
   -0.5285    1.0907    0.0000 C   0  0  0  0  0  0  0  0  0  0  0  0
    0.9340    1.4243    0.0000 C   0  0  0  0  0  0  0  0  0  0  0  0
    1.9540    0.3245    0.0000 C   0  0  0  0  0  0  0  0  0  0  0  0
    3.4165    0.6580    0.0000 O   0  0  0  0  0  0  0  0  0  0  0  0
    4.4365   -0.4418    0.0000 C   0  0  0  0  0  0  0  0  0  0  0  0
    1.5116   -1.1088    0.0000 C   0  0  0  0  0  0  0  0  0  0  0  0
    0.0492   -1.4423    0.0000 C   0  0  0  0  0  0  0  0  0  0  0  0
  1  2  1  0
  2  3  2  3
  3  4  1  0
  4  5  2  0
  5  6  1  0
  6  7  2  0
  7  8  1  0
  8  9  1  0
  7 10  1  0
 10 11  2  0
 11  4  1  0
M  END
> <Identifier>
(E)-Anethol

> <SkinReaction>
1

$$$$

     RDKit          2D

 16 16  0  0  0  0  0  0  0  0999 V2000
   -7.5706    0.9830    0.0000 C   0  0  0  0  0  0  0  0  0  0  0  0
   -6.3569    0.1015    0.0000 C   0  0  0  0  0  0  0  0  0  0  0  0
   -4.9867    0.7118    0.0000 C   0  0  0  0  0  0  0  0  0  0  0  0
   -3.7730   -0.1696    0.0000 C   0  0  0  0  0  0  0  0  0  0  0  0
   -2.4028    0.4407    0.0000 C   0  0  0  0  0  0  0  0  0  0  0  0
   -1.1892   -0.4408    0.0000 C   0  0  0  0  0  0  0  0  0  0  0  0
   -1.3457   -1.9326    0.0000 O   0  0  0  0  0  0  0  0  0  0  0  0
    0.1811    0.1695    0.0000 C   0  0  0  0  0  0  0  0  0  0  0  0
    1.3947   -0.7120    0.0000 C   0  0  0  0  0  0  0  0  0  0  0  0
    1.2382   -2.2038    0.0000 O   0  0  0  0  0  0  0  0  0  0  0  0
    2.7649   -0.1016    0.0000 C   0  0  0  0  0  0  0  0  0  0  0  0
    2.9215    1.3902    0.0000 C   0  0  0  0  0  0  0  0  0  0  0  0
    4.2917    2.0005    0.0000 C   0  0  0  0  0  0  0  0  0  0  0  0
    5.5054    1.1190    0.0000 C   0  0  0  0  0  0  0  0  0  0  0  0
    5.3488   -0.3728    0.0000 C   0  0  0  0  0  0  0  0  0  0  0  0
    3.9786   -0.9831    0.0000 C   0  0  0  0  0  0  0  0  0  0  0  0
  1  2  1  0
  2  3  1  0
  3  4  1  0
  4  5  1  0
  5  6  1  0
  6  7  2  0
  6  8  1  0
  8  9  1  0
  9 10  2  0
  9 11  1  0
 11 12  2  0
 12 13  1  0
 13 14  2  0
 14 15  1  0
 15 16  2  0
 16 11  1  0
M  END
> <Identifier>
1 -Phenyloctane-1,3-dione

> <SkinReaction>
1

$$$$

     RDKit          2D

 16 16  0  0  0  0  0  0  0  0999 V2000
   -4.9534   -1.8497    0.0000 C   0  0  0  0  0  0  0  0  0  0  0  0
   -3.4616   -2.0056    0.0000 C   0  0  0  0  0  0  0  0  0  0  0  0
   -2.5806   -0.7915    0.0000 C   0  0  0  0  0  0  0  0  0  0  0  0
   -3.1915    0.5784    0.0000 C   0  0  0  0  0  0  0  0  0  0  0  0
   -2.3106    1.7925    0.0000 C   0  0  0  0  0  0  0  0  0  0  0  0
   -0.8187    1.6366    0.0000 C   0  0  0  0  0  0  0  0  0  0  0  0
    0.0622    2.8506    0.0000 C   0  0  0  0  0  0  0  0  0  0  0  0
    1.5541    2.6947    0.0000 C   0  0  0  0  0  0  0  0  0  0  0  0
   -0.2078    0.2666    0.0000 C   0  0  0  0  0  0  0  0  0  0  0  0
    1.2841    0.1107    0.0000 C   0  0  0  0  0  0  0  0  0  0  0  0
    2.1650    1.3248    0.0000 O   0  0  0  0  0  0  0  0  0  0  0  0
    1.8950   -1.2592    0.0000 C   0  0  0  0  0  0  0  0  0  0  0  0
    3.3869   -1.4151    0.0000 C   0  0  0  0  0  0  0  0  0  0  0  0
    3.9978   -2.7851    0.0000 C   0  0  0  0  0  0  0  0  0  0  0  0
    4.2678   -0.2011    0.0000 O   0  0  0  0  0  0  0  0  0  0  0  0
   -1.0887   -0.9474    0.0000 C   0  0  0  0  0  0  0  0  0  0  0  0
  1  2  1  0
  2  3  1  0
  3  4  2  0
  4  5  1  0
  5  6  2  0
  6  7  1  0
  7  8  1  0
  6  9  1  0
  9 10  1  0
 10 11  2  0
 10 12  1  0
 12 13  1  0
 13 14  1  0
 13 15  2  0
  9 16  2  0
 16  3  1  0
M  END
> <Identifier>
1-(2',5'-diethylphenyl)butane-1,3-dione

> <SkinReaction>
1

$$$$

     RDKit          2D

 14 14  0  0  0  0  0  0  0  0999 V2000
   -4.2471    1.8671    0.0000 C   0  0  0  0  0  0  0  0  0  0  0  0
   -3.3598    0.6577    0.0000 C   0  0  0  0  0  0  0  0  0  0  0  0
   -3.9634   -0.7155    0.0000 O   0  0  0  0  0  0  0  0  0  0  0  0
   -1.8687    0.8215    0.0000 C   0  0  0  0  0  0  0  0  0  0  0  0
   -0.9814   -0.3879    0.0000 C   0  0  0  0  0  0  0  0  0  0  0  0
   -1.5850   -1.7610    0.0000 O   0  0  0  0  0  0  0  0  0  0  0  0
    0.5097   -0.2240    0.0000 C   0  0  0  0  0  0  0  0  0  0  0  0
    1.1133    1.1491    0.0000 C   0  0  0  0  0  0  0  0  0  0  0  0
    2.6043    1.3129    0.0000 C   0  0  0  0  0  0  0  0  0  0  0  0
    3.2080    2.6861    0.0000 C   0  0  0  0  0  0  0  0  0  0  0  0
    3.4917    0.1036    0.0000 C   0  0  0  0  0  0  0  0  0  0  0  0
    2.8881   -1.2696    0.0000 C   0  0  0  0  0  0  0  0  0  0  0  0
    1.3970   -1.4334    0.0000 C   0  0  0  0  0  0  0  0  0  0  0  0
    0.7934   -2.8066    0.0000 C   0  0  0  0  0  0  0  0  0  0  0  0
  1  2  1  0
  2  3  2  0
  2  4  1  0
  4  5  1  0
  5  6  2  0
  5  7  1  0
  7  8  2  0
  8  9  1  0
  9 10  1  0
  9 11  2  0
 11 12  1  0
 12 13  2  0
 13 14  1  0
 13  7  1  0
M  END
> <Identifier>
1-(2,5-Dimethylphenyl)-1,3-butanedione

> <SkinReaction>
1

$$$$

     RDKit          2D

 10 11  0  0  0  0  0  0  0  0999 V2000
   -2.6152    1.6326    0.0000 O   0  0  0  0  0  0  0  0  0  0  0  0
   -1.7242    0.4260    0.0000 C   0  0  0  0  0  0  0  0  0  0  0  0
   -2.1766   -1.0042    0.0000 N   0  0  0  0  0  0  0  0  0  0  0  0
   -0.9564   -1.8765    0.0000 S   0  0  0  0  0  0  0  0  0  0  0  0
    0.2503   -0.9854    0.0000 C   0  0  0  0  0  0  0  0  0  0  0  0
    1.7199   -1.2860    0.0000 C   0  0  0  0  0  0  0  0  0  0  0  0
    2.7150   -0.1635    0.0000 C   0  0  0  0  0  0  0  0  0  0  0  0
    2.2404    1.2594    0.0000 C   0  0  0  0  0  0  0  0  0  0  0  0
    0.7709    1.5600    0.0000 C   0  0  0  0  0  0  0  0  0  0  0  0
   -0.2242    0.4375    0.0000 C   0  0  0  0  0  0  0  0  0  0  0  0
  1  2  2  0
  2  3  1  0
  3  4  1  0
  4  5  1  0
  5  6  2  0
  6  7  1  0
  7  8  2  0
  8  9  1  0
  9 10  2  0
 10  2  1  0
 10  5  1  0
M  END
> <Identifier>
1,2-Benzisothiazolin-3-one

> <SkinReaction>
1

$$$$

     RDKit          2D

 10  9  0  0  0  0  0  0  0  0999 V2000
   -4.6777   -0.3909    0.0000 N   0  0  0  0  0  0  0  0  0  0  0  0
   -3.2574    0.0915    0.0000 C   0  0  0  0  0  0  0  0  0  0  0  0
   -1.8371    0.5740    0.0000 C   0  0  0  0  0  0  0  0  0  0  0  0
   -0.7092   -0.4148    0.0000 C   0  0  0  0  0  0  0  0  0  0  0  0
    0.7111    0.0676    0.0000 C   0  0  0  0  0  0  0  0  0  0  0  0
    0.2287    1.4879    0.0000 Br  0  0  0  0  0  0  0  0  0  0  0  0
    2.1314    0.5500    0.0000 C   0  0  0  0  0  0  0  0  0  0  0  0
    3.5517    1.0325    0.0000 N   0  0  0  0  0  0  0  0  0  0  0  0
    1.1936   -1.3527    0.0000 C   0  0  0  0  0  0  0  0  0  0  0  0
    2.6648   -1.6450    0.0000 Br  0  0  0  0  0  0  0  0  0  0  0  0
  1  2  3  0
  2  3  1  0
  3  4  1  0
  4  5  1  0
  5  6  1  0
  5  7  1  0
  7  8  3  0
  5  9  1  0
  9 10  1  0
M  END
> <Identifier>
1,2-Dibromo-2,4-dicyanobutane

> <SkinReaction>
1

$$$$

     RDKit          2D

 18 19  0  0  0  0  0  0  0  0999 V2000
   -2.2409    4.0756    0.0000 C   0  0  0  0  0  0  0  0  0  0  0  0
   -2.3136    2.5773    0.0000 C   0  0  0  0  0  0  0  0  0  0  0  0
   -1.0524    1.7653    0.0000 C   0  0  0  0  0  0  0  0  0  0  0  0
    0.2815    2.4514    0.0000 O   0  0  0  0  0  0  0  0  0  0  0  0
   -1.1251    0.2670    0.0000 N   0  0  0  0  0  0  0  0  0  0  0  0
   -2.3799   -0.5548    0.0000 C   0  0  0  0  0  0  0  0  0  0  0  0
   -3.7824   -0.0227    0.0000 O   0  0  0  0  0  0  0  0  0  0  0  0
   -1.9861   -2.0022    0.0000 N   0  0  0  0  0  0  0  0  0  0  0  0
   -2.9256   -3.1715    0.0000 C   0  0  0  0  0  0  0  0  0  0  0  0
   -0.4879   -2.0749    0.0000 C   0  0  0  0  0  0  0  0  0  0  0  0
    0.3340   -3.3297    0.0000 C   0  0  0  0  0  0  0  0  0  0  0  0
    0.0443   -0.6724    0.0000 C   0  0  0  0  0  0  0  0  0  0  0  0
    1.4916   -0.2786    0.0000 C   0  0  0  0  0  0  0  0  0  0  0  0
    2.5564   -1.3351    0.0000 C   0  0  0  0  0  0  0  0  0  0  0  0
    4.0038   -0.9413    0.0000 C   0  0  0  0  0  0  0  0  0  0  0  0
    4.3864    0.5091    0.0000 C   0  0  0  0  0  0  0  0  0  0  0  0
    3.3216    1.5656    0.0000 C   0  0  0  0  0  0  0  0  0  0  0  0
    1.8743    1.1718    0.0000 C   0  0  0  0  0  0  0  0  0  0  0  0
  1  2  2  0
  2  3  1  0
  3  4  2  0
  3  5  1  0
  5  6  1  0
  6  7  2  0
  6  8  1  0
  8  9  1  0
  8 10  1  0
 10 11  1  0
 10 12  1  0
 12 13  1  0
 13 14  2  0
 14 15  1  0
 15 16  2  0
 16 17  1  0
 17 18  2  0
 12  5  1  0
 18 13  1  0
M  END
> <Identifier>
1,5-Dimethyl-3-(1-oxo-2-propenyl)-4-phenyl-2-imidazolidinone

> <SkinReaction>
1

$$$$

     RDKit          2D

 16 17  0  0  0  0  0  0  0  0999 V2000
    0.6217   -0.4196    0.0000 C   0  0  0  0  0  0  0  0  0  0  0  0
   -0.6217    0.4196    0.0000 C   0  0  0  0  0  0  0  0  0  0  0  0
   -1.9700   -0.2376    0.0000 C   0  0  0  0  0  0  0  0  0  0  0  0
   -3.2133    0.6016    0.0000 C   0  0  0  0  0  0  0  0  0  0  0  0
   -4.5617   -0.0556    0.0000 O   0  0  0  0  0  0  0  0  0  0  0  0
   -5.8050    0.7836    0.0000 C   0  0  0  0  0  0  0  0  0  0  0  0
   -7.1534    0.1264    0.0000 C   0  0  0  0  0  0  0  0  0  0  0  0
   -7.9926   -1.1169    0.0000 C   0  0  0  0  0  0  0  0  0  0  0  0
   -8.6497    0.2315    0.0000 O   0  0  0  0  0  0  0  0  0  0  0  0
    1.9700    0.2376    0.0000 C   0  0  0  0  0  0  0  0  0  0  0  0
    3.2133   -0.6016    0.0000 C   0  0  0  0  0  0  0  0  0  0  0  0
    4.5617    0.0556    0.0000 O   0  0  0  0  0  0  0  0  0  0  0  0
    5.8050   -0.7836    0.0000 C   0  0  0  0  0  0  0  0  0  0  0  0
    7.1534   -0.1264    0.0000 C   0  0  0  0  0  0  0  0  0  0  0  0
    7.9926    1.1169    0.0000 C   0  0  0  0  0  0  0  0  0  0  0  0
    8.6497   -0.2315    0.0000 O   0  0  0  0  0  0  0  0  0  0  0  0
  1  2  1  0
  2  3  1  0
  3  4  1  0
  4  5  1  0
  5  6  1  0
  6  7  1  0
  7  8  1  0
  8  9  1  0
  1 10  1  0
 10 11  1  0
 11 12  1  0
 12 13  1  0
 13 14  1  0
 14 15  1  0
 15 16  1  0
  9  7  1  0
 16 14  1  0
M  END
> <Identifier>
1,6-Bis(2,3-epoxypropoxy)-hexane

> <SkinReaction>
1

$$$$

     RDKit          2D

 14 13  0  0  0  0  0  0  0  0999 V2000
    8.4468   -0.2996    0.0000 O   0  0  0  0  0  0  0  0  0  0  0  0
    7.1411    0.4388    0.0000 C   0  0  0  0  0  0  0  0  0  0  0  0
    5.8488   -0.3228    0.0000 C   0  0  0  0  0  0  0  0  0  0  0  0
    4.5431    0.4156    0.0000 C   0  0  0  0  0  0  0  0  0  0  0  0
    3.2508   -0.3460    0.0000 C   0  0  0  0  0  0  0  0  0  0  0  0
    1.9451    0.3924    0.0000 C   0  0  0  0  0  0  0  0  0  0  0  0
    0.6528   -0.3692    0.0000 C   0  0  0  0  0  0  0  0  0  0  0  0
   -0.6528    0.3692    0.0000 C   0  0  0  0  0  0  0  0  0  0  0  0
   -1.9451   -0.3924    0.0000 C   0  0  0  0  0  0  0  0  0  0  0  0
   -3.2508    0.3460    0.0000 C   0  0  0  0  0  0  0  0  0  0  0  0
   -4.5431   -0.4156    0.0000 C   0  0  0  0  0  0  0  0  0  0  0  0
   -5.8488    0.3228    0.0000 C   0  0  0  0  0  0  0  0  0  0  0  0
   -7.1411   -0.4388    0.0000 C   0  0  0  0  0  0  0  0  0  0  0  0
   -8.4468    0.2996    0.0000 Br  0  0  0  0  0  0  0  0  0  0  0  0
  1  2  1  0
  2  3  1  0
  3  4  1  0
  4  5  1  0
  5  6  1  0
  6  7  1  0
  7  8  1  0
  8  9  1  0
  9 10  1  0
 10 11  1  0
 11 12  1  0
 12 13  1  0
 13 14  1  0
M  END
> <Identifier>
12-Bromo-1-dodecanol

> <SkinReaction>
1

$$$$

     RDKit          2D

 21 25  0  0  0  0  0  0  0  0999 V2000
   -2.4647   -3.5937    0.0000 O   0  0  0  0  0  0  0  0  0  0  0  0
   -2.2448   -2.1099    0.0000 C   0  0  0  0  0  0  0  0  0  0  0  0
   -3.4198   -1.1775    0.0000 C   0  0  0  0  0  0  0  0  0  0  0  0
   -3.1999    0.3063    0.0000 C   0  0  0  0  0  0  0  0  0  0  0  0
   -1.8049    0.8577    0.0000 C   0  0  0  0  0  0  0  0  0  0  0  0
   -2.9799    1.7901    0.0000 O   0  0  0  0  0  0  0  0  0  0  0  0
   -1.5849    2.3415    0.0000 C   0  0  0  0  0  0  0  0  0  0  0  0
    0.6031    2.5114    0.0000 C   0  0  0  0  0  0  0  0  0  0  0  0
    1.6537    1.4407    0.0000 C   0  0  0  0  0  0  0  0  0  0  0  0
    3.1524    1.3771    0.0000 C   0  0  0  0  0  0  0  0  0  0  0  0
    3.8466    0.0474    0.0000 C   0  0  0  0  0  0  0  0  0  0  0  0
    3.0421   -1.2187    0.0000 C   0  0  0  0  0  0  0  0  0  0  0  0
    3.7363   -2.5483    0.0000 O   0  0  0  0  0  0  0  0  0  0  0  0
    1.5435   -1.1550    0.0000 C   0  0  0  0  0  0  0  0  0  0  0  0
    0.8493    0.1747    0.0000 C   0  0  0  0  0  0  0  0  0  0  0  0
   -0.6299   -0.0747    0.0000 C   0  0  0  0  0  0  0  0  0  0  0  0
    0.2168    0.9119    0.0000 C   0  0  0  0  0  0  0  0  0  0  0  0
    0.3341    1.7032    0.0000 C   0  0  0  0  0  0  0  0  0  0  0  0
   -0.2926    2.2005    0.0000 N   0  0  0  0  0  0  0  0  0  0  0  0
   -0.8498   -1.5585    0.0000 C   0  0  0  0  0  0  0  0  0  0  0  0
    0.4934   -2.2261    0.0000 O   0  0  0  0  0  0  0  0  0  0  0  0
  1  2  2  0
  2  3  1  0
  3  4  2  0
  4  5  1  0
  5  6  1  0
  5  7  1  0
  7  8  1  0
  8  9  1  0
  9 10  2  0
 10 11  1  0
 11 12  2  0
 12 13  1  0
 12 14  1  0
 14 15  2  0
 15 16  1  0
 16 17  1  0
 17 18  1  0
 18 19  1  0
 16 20  1  0
 20 21  1  0
 20  2  1  0
 16  5  1  0
 19  7  1  0
 15  9  1  0
 21 14  1  0
M  END
> <Identifier>
14-Hydroxynor-morphinone

> <SkinReaction>
1

$$$$

     RDKit          2D

 13 13  0  0  0  0  0  0  0  0999 V2000
   -3.0672   -1.9354    0.0000 O   0  0  0  0  0  0  0  0  0  0  0  0
   -2.8776   -0.4475    0.0000 N   0  0  0  0  0  4  0  0  0  0  0  0
   -4.0714    0.4608    0.0000 O   0  0  0  0  0  1  0  0  0  0  0  0
   -1.4942    0.1323    0.0000 C   0  0  0  0  0  0  0  0  0  0  0  0
   -1.3045    1.6202    0.0000 C   0  0  0  0  0  0  0  0  0  0  0  0
    0.0789    2.2000    0.0000 C   0  0  0  0  0  0  0  0  0  0  0  0
    1.2727    1.2918    0.0000 C   0  0  0  0  0  0  0  0  0  0  0  0
    2.6562    1.8715    0.0000 Cl  0  0  0  0  0  0  0  0  0  0  0  0
    1.0831   -0.1962    0.0000 C   0  0  0  0  0  0  0  0  0  0  0  0
    2.2769   -1.1044    0.0000 N   0  0  0  0  0  4  0  0  0  0  0  0
    3.6603   -0.5247    0.0000 O   0  0  0  0  0  0  0  0  0  0  0  0
    2.0872   -2.5924    0.0000 O   0  0  0  0  0  1  0  0  0  0  0  0
   -0.3004   -0.7759    0.0000 C   0  0  0  0  0  0  0  0  0  0  0  0
  1  2  2  0
  2  3  1  0
  2  4  1  0
  4  5  2  0
  5  6  1  0
  6  7  2  0
  7  8  1  0
  7  9  1  0
  9 10  1  0
 10 11  2  0
 10 12  1  0
  9 13  2  0
 13  4  1  0
M  CHG  4   2   1   3  -1  10   1  12  -1
M  END
> <Identifier>
1-Chloro-2,4- dinitrobenzene

> <SkinReaction>
1

$$$$

     RDKit          2D

 19 18  0  0  0  0  0  0  0  0999 V2000
  -11.6913   -0.3553    0.0000 C   0  0  0  0  0  0  0  0  0  0  0  0
  -10.3923    0.3947    0.0000 C   0  0  0  0  0  0  0  0  0  0  0  0
   -9.0933   -0.3553    0.0000 C   0  0  0  0  0  0  0  0  0  0  0  0
   -7.7942    0.3947    0.0000 C   0  0  0  0  0  0  0  0  0  0  0  0
   -6.4952   -0.3553    0.0000 C   0  0  0  0  0  0  0  0  0  0  0  0
   -5.1962    0.3947    0.0000 C   0  0  0  0  0  0  0  0  0  0  0  0
   -3.8971   -0.3553    0.0000 C   0  0  0  0  0  0  0  0  0  0  0  0
   -2.5981    0.3947    0.0000 C   0  0  0  0  0  0  0  0  0  0  0  0
   -1.2990   -0.3553    0.0000 C   0  0  0  0  0  0  0  0  0  0  0  0
    0.0000    0.3947    0.0000 C   0  0  0  0  0  0  0  0  0  0  0  0
    1.2990   -0.3553    0.0000 C   0  0  0  0  0  0  0  0  0  0  0  0
    2.5981    0.3947    0.0000 C   0  0  0  0  0  0  0  0  0  0  0  0
    3.8971   -0.3553    0.0000 C   0  0  0  0  0  0  0  0  0  0  0  0
    5.1962    0.3947    0.0000 C   0  0  0  0  0  0  0  0  0  0  0  0
    6.4952   -0.3553    0.0000 C   0  0  0  0  0  0  0  0  0  0  0  0
    7.7942    0.3947    0.0000 C   0  0  0  0  0  0  0  0  0  0  0  0
    9.0933   -0.3553    0.0000 C   0  0  0  0  0  0  0  0  0  0  0  0
   10.3923    0.3947    0.0000 C   0  0  0  0  0  0  0  0  0  0  0  0
   11.6913   -0.3553    0.0000 Cl  0  0  0  0  0  0  0  0  0  0  0  0
  1  2  1  0
  2  3  1  0
  3  4  1  0
  4  5  1  0
  5  6  1  0
  6  7  1  0
  7  8  1  0
  8  9  1  0
  9 10  1  0
 10 11  1  0
 11 12  1  0
 12 13  1  0
 13 14  1  0
 14 15  1  0
 15 16  1  0
 16 17  1  0
 17 18  1  0
 18 19  1  0
M  END
> <Identifier>
1-Chlorooctadecane

> <SkinReaction>
1

$$$$

     RDKit          2D

 11 10  0  0  0  0  0  0  0  0999 V2000
   -6.4952   -0.3409    0.0000 C   0  0  0  0  0  0  0  0  0  0  0  0
   -5.1962    0.4091    0.0000 C   0  0  0  0  0  0  0  0  0  0  0  0
   -3.8971   -0.3409    0.0000 C   0  0  0  0  0  0  0  0  0  0  0  0
   -2.5981    0.4091    0.0000 C   0  0  0  0  0  0  0  0  0  0  0  0
   -1.2990   -0.3409    0.0000 C   0  0  0  0  0  0  0  0  0  0  0  0
    0.0000    0.4091    0.0000 C   0  0  0  0  0  0  0  0  0  0  0  0
    1.2990   -0.3409    0.0000 C   0  0  0  0  0  0  0  0  0  0  0  0
    2.5981    0.4091    0.0000 C   0  0  0  0  0  0  0  0  0  0  0  0
    3.8971   -0.3409    0.0000 C   0  0  0  0  0  0  0  0  0  0  0  0
    5.1962    0.4091    0.0000 C   0  0  0  0  0  0  0  0  0  0  0  0
    6.4952   -0.3409    0.0000 I   0  0  0  0  0  0  0  0  0  0  0  0
  1  2  1  0
  2  3  1  0
  3  4  1  0
  4  5  1  0
  5  6  1  0
  6  7  1  0
  7  8  1  0
  8  9  1  0
  9 10  1  0
 10 11  1  0
M  END
> <Identifier>
1-Iododecane

> <SkinReaction>
1

$$$$

     RDKit          2D

 10  9  0  0  0  0  0  0  0  0999 V2000
    1.5588    2.2500    0.0000 C   0  0  0  0  0  0  0  0  0  0  0  0
    1.5588    0.7500    0.0000 N   0  0  0  0  0  0  0  0  0  0  0  0
    2.8579    0.0000    0.0000 N   0  0  0  0  0  0  0  0  0  0  0  0
    2.8579   -1.5000    0.0000 O   0  0  0  0  0  0  0  0  0  0  0  0
    0.2598    0.0000    0.0000 C   0  0  0  0  0  0  0  0  0  0  0  0
    0.2598   -1.5000    0.0000 N   0  0  0  0  0  0  0  0  0  0  0  0
   -1.0392    0.7500    0.0000 N   0  0  0  0  0  0  0  0  0  0  0  0
   -2.3383    0.0000    0.0000 N   0  0  0  0  0  4  0  0  0  0  0  0
   -2.3383   -1.5000    0.0000 O   0  0  0  0  0  0  0  0  0  0  0  0
   -3.6373    0.7500    0.0000 O   0  0  0  0  0  1  0  0  0  0  0  0
  1  2  1  0
  2  3  1  0
  3  4  2  0
  2  5  1  0
  5  6  2  0
  5  7  1  0
  7  8  1  0
  8  9  2  0
  8 10  1  0
M  CHG  2   8   1  10  -1
M  END
> <Identifier>
1-Methyl-3-nitro- nitrosoguanidine

> <SkinReaction>
1

$$$$

     RDKit          2D

 11 12  0  0  0  0  0  0  0  0999 V2000
   -1.7578    2.3964    0.0000 O   0  0  0  0  0  0  0  0  0  0  0  0
   -1.4243    0.9340    0.0000 C   0  0  0  0  0  0  0  0  0  0  0  0
   -2.5240   -0.0861    0.0000 C   0  0  0  0  0  0  0  0  0  0  0  0
   -2.1905   -1.5485    0.0000 C   0  0  0  0  0  0  0  0  0  0  0  0
   -0.7572   -1.9909    0.0000 C   0  0  0  0  0  0  0  0  0  0  0  0
    0.3425   -0.9709    0.0000 C   0  0  0  0  0  0  0  0  0  0  0  0
    1.7758   -1.4133    0.0000 C   0  0  0  0  0  0  0  0  0  0  0  0
    2.8756   -0.3932    0.0000 C   0  0  0  0  0  0  0  0  0  0  0  0
    2.5421    1.0692    0.0000 C   0  0  0  0  0  0  0  0  0  0  0  0
    1.1088    1.5116    0.0000 C   0  0  0  0  0  0  0  0  0  0  0  0
    0.0090    0.4916    0.0000 C   0  0  0  0  0  0  0  0  0  0  0  0
  1  2  1  0
  2  3  2  0
  3  4  1  0
  4  5  2  0
  5  6  1  0
  6  7  2  0
  7  8  1  0
  8  9  2  0
  9 10  1  0
 10 11  2  0
 11  2  1  0
 11  6  1  0
M  END
> <Identifier>
1-Naphthol

> <SkinReaction>
1

$$$$

     RDKit          2D

 14 14  0  0  0  0  0  0  0  0999 V2000
   -4.5356   -0.4910    0.0000 N   0  0  0  0  0  0  0  0  0  0  0  0
   -3.1182    0.0000    0.0000 C   0  0  0  0  0  0  0  0  0  0  0  0
   -2.8347    1.4730    0.0000 C   0  0  0  0  0  0  0  0  0  0  0  0
   -1.4174    1.9640    0.0000 C   0  0  0  0  0  0  0  0  0  0  0  0
   -0.2835    0.9820    0.0000 C   0  0  0  0  0  0  0  0  0  0  0  0
    1.1339    1.4730    0.0000 N   0  0  0  0  0  0  0  0  0  0  0  0
    2.2678    0.4910    0.0000 C   0  0  0  0  0  0  0  0  0  0  0  0
    3.6852    0.9820    0.0000 C   0  0  0  0  0  0  0  0  0  0  0  0
    4.8190   -0.0000    0.0000 O   0  0  0  0  0  0  0  0  0  0  0  0
   -0.5669   -0.4910    0.0000 C   0  0  0  0  0  0  0  0  0  0  0  0
    0.5669   -1.4730    0.0000 N   0  0  0  0  0  4  0  0  0  0  0  0
    1.9843   -0.9820    0.0000 O   0  0  0  0  0  0  0  0  0  0  0  0
    0.2835   -2.9459    0.0000 O   0  0  0  0  0  1  0  0  0  0  0  0
   -1.9843   -0.9820    0.0000 C   0  0  0  0  0  0  0  0  0  0  0  0
  1  2  1  0
  2  3  2  0
  3  4  1  0
  4  5  2  0
  5  6  1  0
  6  7  1  0
  7  8  1  0
  8  9  1  0
  5 10  1  0
 10 11  1  0
 11 12  2  0
 11 13  1  0
 10 14  2  0
 14  2  1  0
M  CHG  2  11   1  13  -1
M  END
> <Identifier>
2-(4-Amino-2nitro-phenylamino)-ethanol

> <SkinReaction>
1

$$$$

     RDKit          2D

  7  6  0  0  0  0  0  0  0  0999 V2000
   -3.8971   -0.3214    0.0000 C   0  0  0  0  0  0  0  0  0  0  0  0
   -2.5981    0.4286    0.0000 C   0  0  0  0  0  0  0  0  0  0  0  0
   -1.2990   -0.3214    0.0000 C   0  0  0  0  0  0  0  0  0  0  0  0
    0.0000    0.4286    0.0000 C   0  0  0  0  0  0  0  0  0  0  0  0
    1.2990   -0.3214    0.0000 C   0  0  0  0  0  0  0  0  0  0  0  0
    2.5981    0.4286    0.0000 C   0  0  0  0  0  0  0  0  0  0  0  0
    3.8971   -0.3214    0.0000 O   0  0  0  0  0  0  0  0  0  0  0  0
  1  2  1  0
  2  3  1  0
  3  4  1  0
  4  5  2  3
  5  6  1  0
  6  7  2  0
M  END
> <Identifier>
2(E)-Hexenal

> <SkinReaction>
1

$$$$

     RDKit          2D

 12 12  0  0  0  0  0  0  0  0999 V2000
    4.2477   -1.0698    0.0000 N   0  0  0  0  0  0  0  0  0  0  0  0
    2.8130   -0.6320    0.0000 C   0  0  0  0  0  0  0  0  0  0  0  0
    1.7165   -1.6556    0.0000 C   0  0  0  0  0  0  0  0  0  0  0  0
    0.2818   -1.2178    0.0000 C   0  0  0  0  0  0  0  0  0  0  0  0
   -0.0564    0.2436    0.0000 C   0  0  0  0  0  0  0  0  0  0  0  0
   -1.4911    0.6814    0.0000 O   0  0  0  0  0  0  0  0  0  0  0  0
   -2.5875   -0.3422    0.0000 C   0  0  0  0  0  0  0  0  0  0  0  0
   -4.0222    0.0956    0.0000 C   0  0  0  0  0  0  0  0  0  0  0  0
   -5.1187   -0.9280    0.0000 O   0  0  0  0  0  0  0  0  0  0  0  0
    1.0401    1.2671    0.0000 C   0  0  0  0  0  0  0  0  0  0  0  0
    0.7019    2.7285    0.0000 N   0  0  0  0  0  0  0  0  0  0  0  0
    2.4748    0.8293    0.0000 C   0  0  0  0  0  0  0  0  0  0  0  0
  1  2  1  0
  2  3  2  0
  3  4  1  0
  4  5  2  0
  5  6  1  0
  6  7  1  0
  7  8  1  0
  8  9  1  0
  5 10  1  0
 10 11  1  0
 10 12  2  0
 12  2  1  0
M  END
> <Identifier>
2-(2,4-Diaminophenoxy)ethanol

> <SkinReaction>
1

$$$$

     RDKit          2D

 21 22  0  0  0  0  0  0  0  0999 V2000
   -6.7267   -0.2030    0.0000 C   0  0  0  0  0  0  0  0  0  0  0  0
   -5.3471   -0.7918    0.0000 N   0  0  0  0  0  0  0  0  0  0  0  0
   -5.1672   -2.2809    0.0000 C   0  0  0  0  0  0  0  0  0  0  0  0
   -4.1474    0.1086    0.0000 C   0  0  0  0  0  0  0  0  0  0  0  0
   -2.7677   -0.4802    0.0000 C   0  0  0  0  0  0  0  0  0  0  0  0
   -1.5680    0.4202    0.0000 O   0  0  0  0  0  0  0  0  0  0  0  0
   -0.1884   -0.1686    0.0000 C   0  0  0  0  0  0  0  0  0  0  0  0
   -0.7772   -1.5482    0.0000 C   0  0  0  0  0  0  0  0  0  0  0  0
    0.4004    1.2111    0.0000 C   0  0  0  0  0  0  0  0  0  0  0  0
    1.8895    1.3910    0.0000 C   0  0  0  0  0  0  0  0  0  0  0  0
    2.4783    2.7706    0.0000 C   0  0  0  0  0  0  0  0  0  0  0  0
    1.5779    3.9703    0.0000 C   0  0  0  0  0  0  0  0  0  0  0  0
    0.0887    3.7904    0.0000 C   0  0  0  0  0  0  0  0  0  0  0  0
   -0.5000    2.4108    0.0000 C   0  0  0  0  0  0  0  0  0  0  0  0
    1.1912   -0.7573    0.0000 C   0  0  0  0  0  0  0  0  0  0  0  0
    1.3711   -2.2465    0.0000 C   0  0  0  0  0  0  0  0  0  0  0  0
    2.7507   -2.8353    0.0000 C   0  0  0  0  0  0  0  0  0  0  0  0
    3.9504   -1.9349    0.0000 C   0  0  0  0  0  0  0  0  0  0  0  0
    5.3300   -2.5237    0.0000 Br  0  0  0  0  0  0  0  0  0  0  0  0
    3.7705   -0.4457    0.0000 C   0  0  0  0  0  0  0  0  0  0  0  0
    2.3909    0.1431    0.0000 C   0  0  0  0  0  0  0  0  0  0  0  0
  1  2  1  0
  2  3  1  0
  2  4  1  0
  4  5  1  0
  5  6  1  0
  6  7  1  0
  7  8  1  0
  7  9  1  0
  9 10  2  0
 10 11  1  0
 11 12  2  0
 12 13  1  0
 13 14  2  0
  7 15  1  0
 15 16  2  0
 16 17  1  0
 17 18  2  0
 18 19  1  0
 18 20  1  0
 20 21  2  0
 14  9  1  0
 21 15  1  0
M  END
> <Identifier>
2-[1-(4-Bromophenyl)-1-phenylethoxy]-N,N-dimethyl-ethanamine hydrochloride

> <SkinReaction>
1

$$$$

     RDKit          2D

  8  8  0  0  0  0  0  0  0  0999 V2000
    1.9486   -1.5000    0.0000 N   0  0  0  0  0  0  0  0  0  0  0  0
    0.6495   -0.7500    0.0000 C   0  0  0  0  0  0  0  0  0  0  0  0
   -0.6495   -1.5000    0.0000 C   0  0  0  0  0  0  0  0  0  0  0  0
   -1.9486   -0.7500    0.0000 C   0  0  0  0  0  0  0  0  0  0  0  0
   -1.9486    0.7500    0.0000 C   0  0  0  0  0  0  0  0  0  0  0  0
   -0.6495    1.5000    0.0000 C   0  0  0  0  0  0  0  0  0  0  0  0
    0.6495    0.7500    0.0000 C   0  0  0  0  0  0  0  0  0  0  0  0
    1.9486    1.5000    0.0000 O   0  0  0  0  0  0  0  0  0  0  0  0
  1  2  1  0
  2  3  2  0
  3  4  1  0
  4  5  2  0
  5  6  1  0
  6  7  2  0
  7  8  1  0
  7  2  1  0
M  END
> <Identifier>
2-Aminophenol

> <SkinReaction>
1

$$$$

     RDKit          2D

 24 25  0  0  0  0  0  0  0  0999 V2000
   -3.3553   -0.7186    0.0000 C   0  0  0  0  0  0  0  0  0  0  0  0
   -1.9612   -1.2722    0.0000 C   0  0  0  0  0  0  0  0  0  0  0  0
   -0.5671   -1.8259    0.0000 C   0  0  0  0  0  0  0  0  0  0  0  0
   -2.5148   -2.6663    0.0000 C   0  0  0  0  0  0  0  0  0  0  0  0
   -1.4076    0.1219    0.0000 N   0  0  0  0  0  0  0  0  0  0  0  0
    0.0766    0.3395    0.0000 C   0  0  0  0  0  0  0  0  0  0  0  0
    1.0071   -0.8371    0.0000 C   0  0  0  0  0  0  0  0  0  0  0  0
    0.4534   -2.2311    0.0000 O   0  0  0  0  0  0  0  0  0  0  0  0
    2.4912   -0.6195    0.0000 C   0  0  0  0  0  0  0  0  0  0  0  0
    3.4217   -1.7960    0.0000 C   0  0  0  0  0  0  0  0  0  0  0  0
    4.9058   -1.5784    0.0000 C   0  0  0  0  0  0  0  0  0  0  0  0
    5.4595   -0.1843    0.0000 C   0  0  0  0  0  0  0  0  0  0  0  0
    6.9436    0.0333    0.0000 O   0  0  0  0  0  0  0  0  0  0  0  0
    4.5290    0.9922    0.0000 C   0  0  0  0  0  0  0  0  0  0  0  0
    5.0826    2.3863    0.0000 C   0  0  0  0  0  0  0  0  0  0  0  0
    6.5668    2.6039    0.0000 O   0  0  0  0  0  0  0  0  0  0  0  0
    3.0448    0.7746    0.0000 C   0  0  0  0  0  0  0  0  0  0  0  0
   -2.3381    1.2984    0.0000 C   0  0  0  0  0  0  0  0  0  0  0  0
   -3.8222    1.0808    0.0000 C   0  0  0  0  0  0  0  0  0  0  0  0
   -4.7527    2.2573    0.0000 C   0  0  0  0  0  0  0  0  0  0  0  0
   -6.2368    2.0397    0.0000 C   0  0  0  0  0  0  0  0  0  0  0  0
   -6.7905    0.6456    0.0000 C   0  0  0  0  0  0  0  0  0  0  0  0
   -5.8600   -0.5309    0.0000 C   0  0  0  0  0  0  0  0  0  0  0  0
   -4.3758   -0.3133    0.0000 C   0  0  0  0  0  0  0  0  0  0  0  0
  1  2  1  0
  2  3  1  0
  2  4  1  0
  2  5  1  0
  5  6  1  0
  6  7  1  0
  7  8  2  0
  7  9  1  0
  9 10  2  0
 10 11  1  0
 11 12  2  0
 12 13  1  0
 12 14  1  0
 14 15  1  0
 15 16  1  0
 14 17  2  0
  5 18  1  0
 18 19  1  0
 19 20  2  0
 20 21  1  0
 21 22  2  0
 22 23  1  0
 23 24  2  0
 17  9  1  0
 24 19  1  0
M  END
> <Identifier>
2-Benzyl-tert-butylamino-3'-hydroxymethyl-4'-hydroxyaceto-phenone

> <SkinReaction>
1

$$$$

     RDKit          2D

 10 10  0  0  0  0  0  0  0  0999 V2000
    2.4214   -2.2269    0.0000 O   0  0  0  0  0  0  0  0  0  0  0  0
    2.2071   -0.7423    0.0000 C   0  0  0  0  0  0  0  0  0  0  0  0
    0.8143   -0.1856    0.0000 C   0  0  0  0  0  0  0  0  0  0  0  0
   -0.3643   -1.1135    0.0000 C   0  0  0  0  0  0  0  0  0  0  0  0
   -1.7571   -0.5567    0.0000 C   0  0  0  0  0  0  0  0  0  0  0  0
   -2.9357   -1.4846    0.0000 O   0  0  0  0  0  0  0  0  0  0  0  0
   -1.9714    0.9279    0.0000 C   0  0  0  0  0  0  0  0  0  0  0  0
   -0.7929    1.8558    0.0000 C   0  0  0  0  0  0  0  0  0  0  0  0
    0.6000    1.2990    0.0000 C   0  0  0  0  0  0  0  0  0  0  0  0
    1.7786    2.2269    0.0000 Br  0  0  0  0  0  0  0  0  0  0  0  0
  1  2  2  0
  2  3  1  0
  3  4  2  0
  4  5  1  0
  5  6  1  0
  5  7  2  0
  7  8  1  0
  8  9  2  0
  9 10  1  0
  9  3  1  0
M  END
> <Identifier>
2-Bromo-5-hydroxy-benzaldehyde

> <SkinReaction>
1

$$$$

     RDKit          2D

 13 12  0  0  0  0  0  0  0  0999 V2000
   -5.3950    1.2735    0.0000 C   0  0  0  0  0  0  0  0  0  0  0  0
   -3.8978    1.3646    0.0000 C   0  0  0  0  0  0  0  0  0  0  0  0
   -3.0703    0.1135    0.0000 C   0  0  0  0  0  0  0  0  0  0  0  0
   -3.7400   -1.2286    0.0000 O   0  0  0  0  0  0  0  0  0  0  0  0
   -1.5730    0.2046    0.0000 O   0  0  0  0  0  0  0  0  0  0  0  0
   -0.7455   -1.0465    0.0000 C   0  0  0  0  0  0  0  0  0  0  0  0
    0.7517   -0.9554    0.0000 C   0  0  0  0  0  0  0  0  0  0  0  0
    1.5792   -2.2065    0.0000 C   0  0  0  0  0  0  0  0  0  0  0  0
    3.0764   -2.1154    0.0000 C   0  0  0  0  0  0  0  0  0  0  0  0
    1.4214    0.3868    0.0000 C   0  0  0  0  0  0  0  0  0  0  0  0
    2.9187    0.4779    0.0000 C   0  0  0  0  0  0  0  0  0  0  0  0
    3.5884    1.8201    0.0000 C   0  0  0  0  0  0  0  0  0  0  0  0
    5.0856    1.9112    0.0000 C   0  0  0  0  0  0  0  0  0  0  0  0
  1  2  2  0
  2  3  1  0
  3  4  2  0
  3  5  1  0
  5  6  1  0
  6  7  1  0
  7  8  1  0
  8  9  1  0
  7 10  1  0
 10 11  1  0
 11 12  1  0
 12 13  1  0
M  END
> <Identifier>
2-Ethylhexyl acrylate

> <SkinReaction>
1

$$$$

     RDKit          2D

  8  7  0  0  0  0  0  0  0  0999 V2000
   -3.7351    0.0782    0.0000 C   0  0  0  0  0  0  0  0  0  0  0  0
   -2.4029    0.7676    0.0000 C   0  0  0  0  0  0  0  0  0  0  0  0
   -1.1398   -0.0414    0.0000 C   0  0  0  0  0  0  0  0  0  0  0  0
   -1.2088   -1.5398    0.0000 O   0  0  0  0  0  0  0  0  0  0  0  0
    0.1924    0.6481    0.0000 O   0  0  0  0  0  0  0  0  0  0  0  0
    1.4556   -0.1609    0.0000 C   0  0  0  0  0  0  0  0  0  0  0  0
    2.7877    0.5286    0.0000 C   0  0  0  0  0  0  0  0  0  0  0  0
    4.0509   -0.2804    0.0000 O   0  0  0  0  0  0  0  0  0  0  0  0
  1  2  2  0
  2  3  1  0
  3  4  2  0
  3  5  1  0
  5  6  1  0
  6  7  1  0
  7  8  1  0
M  END
> <Identifier>
2-Hydroxyethyl acrylate

> <SkinReaction>
1

$$$$

     RDKit          2D

 10 11  0  0  0  0  0  0  0  0999 V2000
   -3.6907   -0.0000    0.0000 S   0  0  0  0  0  0  0  0  0  0  0  0
   -2.1907   -0.0000    0.0000 C   0  0  0  0  0  0  0  0  0  0  0  0
   -1.3090   -1.2135    0.0000 N   0  0  0  0  0  0  0  0  0  0  0  0
    0.1175   -0.7500    0.0000 C   0  0  0  0  0  0  0  0  0  0  0  0
    1.4166   -1.5000    0.0000 C   0  0  0  0  0  0  0  0  0  0  0  0
    2.7156   -0.7500    0.0000 C   0  0  0  0  0  0  0  0  0  0  0  0
    2.7156    0.7500    0.0000 C   0  0  0  0  0  0  0  0  0  0  0  0
    1.4166    1.5000    0.0000 C   0  0  0  0  0  0  0  0  0  0  0  0
    0.1175    0.7500    0.0000 C   0  0  0  0  0  0  0  0  0  0  0  0
   -1.3090    1.2135    0.0000 S   0  0  0  0  0  0  0  0  0  0  0  0
  1  2  1  0
  2  3  2  0
  3  4  1  0
  4  5  2  0
  5  6  1  0
  6  7  2  0
  7  8  1  0
  8  9  2  0
  9 10  1  0
 10  2  1  0
  9  4  1  0
M  END
> <Identifier>
2-Mercapto-benzothiazole

> <SkinReaction>
1

$$$$

     RDKit          2D

 10 10  0  0  0  0  0  0  0  0999 V2000
    2.4214   -2.2269    0.0000 C   0  0  0  0  0  0  0  0  0  0  0  0
    2.2071   -0.7423    0.0000 O   0  0  0  0  0  0  0  0  0  0  0  0
    0.8143   -0.1856    0.0000 C   0  0  0  0  0  0  0  0  0  0  0  0
   -0.3643   -1.1135    0.0000 C   0  0  0  0  0  0  0  0  0  0  0  0
   -1.7571   -0.5567    0.0000 C   0  0  0  0  0  0  0  0  0  0  0  0
   -2.9357   -1.4846    0.0000 C   0  0  0  0  0  0  0  0  0  0  0  0
   -1.9714    0.9279    0.0000 C   0  0  0  0  0  0  0  0  0  0  0  0
   -0.7929    1.8558    0.0000 C   0  0  0  0  0  0  0  0  0  0  0  0
    0.6000    1.2990    0.0000 C   0  0  0  0  0  0  0  0  0  0  0  0
    1.7786    2.2269    0.0000 O   0  0  0  0  0  0  0  0  0  0  0  0
  1  2  1  0
  2  3  1  0
  3  4  2  0
  4  5  1  0
  5  6  1  0
  5  7  2  0
  7  8  1  0
  8  9  2  0
  9 10  1  0
  9  3  1  0
M  END
> <Identifier>
2-Methoxy-4-methylphenol

> <SkinReaction>
1

$$$$

     RDKit          2D

 13 12  0  0  0  0  0  0  0  0999 V2000
   -7.4268    0.0311    0.0000 C   0  0  0  0  0  0  0  0  0  0  0  0
   -6.0609    0.6510    0.0000 C   0  0  0  0  0  0  0  0  0  0  0  0
   -4.8411   -0.2219    0.0000 C   0  0  0  0  0  0  0  0  0  0  0  0
   -3.4752    0.3980    0.0000 C   0  0  0  0  0  0  0  0  0  0  0  0
   -2.2553   -0.4749    0.0000 C   0  0  0  0  0  0  0  0  0  0  0  0
   -0.8894    0.1450    0.0000 C   0  0  0  0  0  0  0  0  0  0  0  0
    0.3304   -0.7279    0.0000 C   0  0  0  0  0  0  0  0  0  0  0  0
    1.6963   -0.1080    0.0000 C   0  0  0  0  0  0  0  0  0  0  0  0
    2.9161   -0.9809    0.0000 C   0  0  0  0  0  0  0  0  0  0  0  0
    4.2820   -0.3610    0.0000 C   0  0  0  0  0  0  0  0  0  0  0  0
    5.5018   -1.2339    0.0000 C   0  0  0  0  0  0  0  0  0  0  0  0
    4.4281    1.1319    0.0000 C   0  0  0  0  0  0  0  0  0  0  0  0
    5.7940    1.7518    0.0000 O   0  0  0  0  0  0  0  0  0  0  0  0
  1  2  1  0
  2  3  1  0
  3  4  1  0
  4  5  1  0
  5  6  1  0
  6  7  1  0
  7  8  1  0
  8  9  1  0
  9 10  1  0
 10 11  1  0
 10 12  1  0
 12 13  2  0
M  END
> <Identifier>
2-Methylundecanal

> <SkinReaction>
1

$$$$

     RDKit          2D

 11 11  0  0  0  0  0  0  0  0999 V2000
   -3.2824   -1.4145    0.0000 N   0  0  0  0  0  0  0  0  0  0  0  0
   -2.0795   -0.5184    0.0000 C   0  0  0  0  0  0  0  0  0  0  0  0
   -2.2541    0.9714    0.0000 C   0  0  0  0  0  0  0  0  0  0  0  0
   -1.0513    1.8676    0.0000 C   0  0  0  0  0  0  0  0  0  0  0  0
    0.3263    1.2739    0.0000 C   0  0  0  0  0  0  0  0  0  0  0  0
    1.5291    2.1701    0.0000 N   0  0  0  0  0  0  0  0  0  0  0  0
    0.5009   -0.2159    0.0000 C   0  0  0  0  0  0  0  0  0  0  0  0
    1.8784   -0.8095    0.0000 N   0  0  0  0  0  4  0  0  0  0  0  0
    3.0813    0.0866    0.0000 O   0  0  0  0  0  0  0  0  0  0  0  0
    2.0531   -2.2993    0.0000 O   0  0  0  0  0  1  0  0  0  0  0  0
   -0.7020   -1.1120    0.0000 C   0  0  0  0  0  0  0  0  0  0  0  0
  1  2  1  0
  2  3  2  0
  3  4  1  0
  4  5  2  0
  5  6  1  0
  5  7  1  0
  7  8  1  0
  8  9  2  0
  8 10  1  0
  7 11  2  0
 11  2  1  0
M  CHG  2   8   1  10  -1
M  END
> <Identifier>
2-Nitro-p- phenylenediamine

> <SkinReaction>
1

$$$$

     RDKit          2D

 29 29  0  0  0  0  0  0  0  0999 V2000
   12.2259    0.3922    0.0000 C   0  0  0  0  0  0  0  0  0  0  0  0
   10.8874    1.0692    0.0000 C   0  0  0  0  0  0  0  0  0  0  0  0
    9.6318    0.2485    0.0000 C   0  0  0  0  0  0  0  0  0  0  0  0
    8.2933    0.9255    0.0000 C   0  0  0  0  0  0  0  0  0  0  0  0
    7.0377    0.1049    0.0000 C   0  0  0  0  0  0  0  0  0  0  0  0
    5.6992    0.7819    0.0000 C   0  0  0  0  0  0  0  0  0  0  0  0
    4.4436   -0.0388    0.0000 C   0  0  0  0  0  0  0  0  0  0  0  0
    3.1051    0.6382    0.0000 C   0  0  0  0  0  0  0  0  0  0  0  0
    1.8495   -0.1825    0.0000 C   0  0  0  0  0  0  0  0  0  0  0  0
    1.9324   -1.6802    0.0000 O   0  0  0  0  0  0  0  0  0  0  0  0
    0.5110    0.4945    0.0000 N   0  0  0  0  0  0  0  0  0  0  0  0
   -0.7446   -0.3262    0.0000 C   0  0  0  0  0  0  0  0  0  0  0  0
   -2.0831    0.3509    0.0000 C   0  0  0  0  0  0  0  0  0  0  0  0
   -3.3387   -0.4698    0.0000 C   0  0  0  0  0  0  0  0  0  0  0  0
   -3.2558   -1.9675    0.0000 C   0  0  0  0  0  0  0  0  0  0  0  0
   -1.9172   -2.6445    0.0000 C   0  0  0  0  0  0  0  0  0  0  0  0
   -1.8343   -4.1423    0.0000 C   0  0  0  0  0  0  0  0  0  0  0  0
   -3.0899   -4.9629    0.0000 O   0  0  0  0  0  0  0  0  0  0  0  0
   -0.4958   -4.8193    0.0000 O   0  0  0  0  0  0  0  0  0  0  0  0
   -4.6772    0.2072    0.0000 C   0  0  0  0  0  0  0  0  0  0  0  0
   -5.9328   -0.6135    0.0000 C   0  0  0  0  0  0  0  0  0  0  0  0
   -7.2713    0.0635    0.0000 C   0  0  0  0  0  0  0  0  0  0  0  0
   -7.3543    1.5612    0.0000 C   0  0  0  0  0  0  0  0  0  0  0  0
   -6.0987    2.3819    0.0000 C   0  0  0  0  0  0  0  0  0  0  0  0
   -4.7602    1.7049    0.0000 C   0  0  0  0  0  0  0  0  0  0  0  0
   -3.5046    2.5256    0.0000 S   0  0  0  0  0  0  0  0  0  0  0  0
   -4.3253    3.7812    0.0000 O   0  0  0  0  0  0  0  0  0  0  0  0
   -2.6839    1.2700    0.0000 O   0  0  0  0  0  0  0  0  0  0  0  0
   -2.2490    3.3463    0.0000 O   0  0  0  0  0  0  0  0  0  0  0  0
  1  2  1  0
  2  3  1  0
  3  4  1  0
  4  5  1  0
  5  6  1  0
  6  7  1  0
  7  8  1  0
  8  9  1  0
  9 10  2  0
  9 11  1  0
 11 12  1  0
 12 13  1  0
 13 14  1  0
 14 15  1  0
 15 16  1  0
 16 17  1  0
 17 18  2  0
 17 19  1  0
 14 20  1  0
 20 21  2  0
 21 22  1  0
 22 23  2  0
 23 24  1  0
 24 25  2  0
 25 26  1  0
 26 27  2  0
 26 28  2  0
 26 29  1  0
 25 20  1  0
M  END
> <Identifier>
4-Sulfophenyl-6-((1-oxononyl)amino)hexanoate (Nonanoylamidocaproylacidoxybenzenesulfonate)

> <SkinReaction>
1

$$$$

     RDKit          2D

  9  9  0  0  0  0  0  0  0  0999 V2000
   -3.1492   -0.4401    0.0000 N   0  0  0  0  0  0  0  0  0  0  0  0
   -1.6886   -0.0985    0.0000 C   0  0  0  0  0  0  0  0  0  0  0  0
   -1.2542    1.3372    0.0000 C   0  0  0  0  0  0  0  0  0  0  0  0
    0.2064    1.6788    0.0000 C   0  0  0  0  0  0  0  0  0  0  0  0
    1.2325    0.5848    0.0000 C   0  0  0  0  0  0  0  0  0  0  0  0
    2.6931    0.9264    0.0000 Cl  0  0  0  0  0  0  0  0  0  0  0  0
    0.7981   -0.8510    0.0000 C   0  0  0  0  0  0  0  0  0  0  0  0
    1.8243   -1.9450    0.0000 Cl  0  0  0  0  0  0  0  0  0  0  0  0
   -0.6625   -1.1926    0.0000 C   0  0  0  0  0  0  0  0  0  0  0  0
  1  2  1  0
  2  3  2  0
  3  4  1  0
  4  5  2  0
  5  6  1  0
  5  7  1  0
  7  8  1  0
  7  9  2  0
  9  2  1  0
M  END
> <Identifier>
3,4-Dichloroaniline hydrochloride

> <SkinReaction>
1

$$$$

     RDKit          2D

 11 10  0  0  0  0  0  0  0  0999 V2000
   -0.5291    2.2321    0.0000 C   0  0  0  0  0  0  0  0  0  0  0  0
    0.2508    0.9508    0.0000 C   0  0  0  0  0  0  0  0  0  0  0  0
    1.7504    0.9855    0.0000 C   0  0  0  0  0  0  0  0  0  0  0  0
    2.5302   -0.2958    0.0000 C   0  0  0  0  0  0  0  0  0  0  0  0
    4.0298   -0.2611    0.0000 O   0  0  0  0  0  0  0  0  0  0  0  0
    1.8105   -1.6119    0.0000 Cl  0  0  0  0  0  0  0  0  0  0  0  0
   -0.4689   -0.3652    0.0000 C   0  0  0  0  0  0  0  0  0  0  0  0
   -1.9685   -0.3999    0.0000 C   0  0  0  0  0  0  0  0  0  0  0  0
   -1.9338   -1.8995    0.0000 C   0  0  0  0  0  0  0  0  0  0  0  0
   -2.0033    1.0997    0.0000 C   0  0  0  0  0  0  0  0  0  0  0  0
   -3.4681   -0.4346    0.0000 C   0  0  0  0  0  0  0  0  0  0  0  0
  1  2  1  0
  2  3  1  0
  3  4  1  0
  4  5  2  0
  4  6  1  0
  2  7  1  0
  7  8  1  0
  8  9  1  0
  8 10  1  0
  8 11  1  0
M  END
> <Identifier>
3,5,5-Trimethyl- hexanoyl chloride

> <SkinReaction>
1

$$$$

     RDKit          2D

 10 10  0  0  0  0  0  0  0  0999 V2000
   -2.0129   -1.7420    0.0000 C   0  0  0  0  0  0  0  0  0  0  0  0
   -1.4466   -0.3530    0.0000 C   0  0  0  0  0  0  0  0  0  0  0  0
   -2.8872    0.0650    0.0000 C   0  0  0  0  0  0  0  0  0  0  0  0
   -0.1244   -1.0613    0.0000 C   0  0  0  0  0  0  0  0  0  0  0  0
    0.9579   -0.0227    0.0000 C   0  0  0  0  0  0  0  0  0  0  0  0
    2.4343   -0.2878    0.0000 C   0  0  0  0  0  0  0  0  0  0  0  0
    2.9429   -1.6989    0.0000 Br  0  0  0  0  0  0  0  0  0  0  0  0
    0.3046    1.3275    0.0000 C   0  0  0  0  0  0  0  0  0  0  0  0
    1.0129    2.6497    0.0000 O   0  0  0  0  0  0  0  0  0  0  0  0
   -1.1815    1.1234    0.0000 O   0  0  0  0  0  0  0  0  0  0  0  0
  1  2  1  0
  2  3  1  0
  2  4  1  0
  4  5  1  0
  5  6  1  0
  6  7  1  0
  5  8  1  0
  8  9  2  0
  8 10  1  0
 10  2  1  0
M  END
> <Identifier>
3-Bromomethyl-5, 5'-dimethyl- dihydro-2(3H)-furanone

> <SkinReaction>
1

$$$$

     RDKit          2D

  7  6  0  0  0  0  0  0  0  0999 V2000
   -2.9274    0.8124    0.0000 C   0  0  0  0  0  0  0  0  0  0  0  0
   -1.6736   -0.0110    0.0000 N   0  0  0  0  0  0  0  0  0  0  0  0
   -1.7598   -1.5085    0.0000 C   0  0  0  0  0  0  0  0  0  0  0  0
   -0.3336    0.6631    0.0000 C   0  0  0  0  0  0  0  0  0  0  0  0
    0.9202   -0.1603    0.0000 C   0  0  0  0  0  0  0  0  0  0  0  0
    2.2602    0.5139    0.0000 C   0  0  0  0  0  0  0  0  0  0  0  0
    3.5140   -0.3095    0.0000 N   0  0  0  0  0  0  0  0  0  0  0  0
  1  2  1  0
  2  3  1  0
  2  4  1  0
  4  5  1  0
  5  6  1  0
  6  7  1  0
M  END
> <Identifier>
3-Dimethylamino- propylamine

> <SkinReaction>
1

$$$$

     RDKit          2D

 14 15  0  0  0  0  0  0  0  0999 V2000
   -3.2143   -2.5981    0.0000 N   0  0  0  0  0  0  0  0  0  0  0  0
   -2.4643   -1.2990    0.0000 C   0  0  0  0  0  0  0  0  0  0  0  0
   -3.2143   -0.0000    0.0000 C   0  0  0  0  0  0  0  0  0  0  0  0
   -2.4643    1.2990    0.0000 C   0  0  0  0  0  0  0  0  0  0  0  0
   -3.2143    2.5981    0.0000 F   0  0  0  0  0  0  0  0  0  0  0  0
   -0.9643    1.2990    0.0000 C   0  0  0  0  0  0  0  0  0  0  0  0
   -0.2143   -0.0000    0.0000 C   0  0  0  0  0  0  0  0  0  0  0  0
    1.2857    0.0000    0.0000 C   0  0  0  0  0  0  0  0  0  0  0  0
    2.0357   -1.2990    0.0000 C   0  0  0  0  0  0  0  0  0  0  0  0
    3.5357   -1.2990    0.0000 C   0  0  0  0  0  0  0  0  0  0  0  0
    4.2857    0.0000    0.0000 C   0  0  0  0  0  0  0  0  0  0  0  0
    3.5357    1.2990    0.0000 N   0  0  0  0  0  0  0  0  0  0  0  0
    2.0357    1.2990    0.0000 C   0  0  0  0  0  0  0  0  0  0  0  0
   -0.9643   -1.2990    0.0000 C   0  0  0  0  0  0  0  0  0  0  0  0
  1  2  1  0
  2  3  2  0
  3  4  1  0
  4  5  1  0
  4  6  2  0
  6  7  1  0
  7  8  1  0
  8  9  2  0
  9 10  1  0
 10 11  2  0
 11 12  1  0
 12 13  2  0
  7 14  2  0
 14  2  1  0
 13  8  1  0
M  END
> <Identifier>
3-Fluoro-5-(3-pyridinyl)benzen-amine

> <SkinReaction>
1

$$$$

     RDKit          2D

 13 13  0  0  0  0  0  0  0  0999 V2000
   -5.2156   -0.1025    0.0000 C   0  0  0  0  0  0  0  0  0  0  0  0
   -3.7628    0.2709    0.0000 C   0  0  0  0  0  0  0  0  0  0  0  0
   -2.7131   -0.8005    0.0000 C   0  0  0  0  0  0  0  0  0  0  0  0
   -1.2603   -0.4271    0.0000 C   0  0  0  0  0  0  0  0  0  0  0  0
   -0.8573    1.0177    0.0000 C   0  0  0  0  0  0  0  0  0  0  0  0
    0.5955    1.3912    0.0000 C   0  0  0  0  0  0  0  0  0  0  0  0
    0.9985    2.8360    0.0000 C   0  0  0  0  0  0  0  0  0  0  0  0
    1.6453    0.3197    0.0000 C   0  0  0  0  0  0  0  0  0  0  0  0
    3.0981    0.6931    0.0000 O   0  0  0  0  0  0  0  0  0  0  0  0
    4.1478   -0.3783    0.0000 C   0  0  0  0  0  0  0  0  0  0  0  0
    1.2423   -1.1251    0.0000 C   0  0  0  0  0  0  0  0  0  0  0  0
    2.2920   -2.1966    0.0000 O   0  0  0  0  0  0  0  0  0  0  0  0
   -0.2105   -1.4985    0.0000 C   0  0  0  0  0  0  0  0  0  0  0  0
  1  2  2  0
  2  3  1  0
  3  4  1  0
  4  5  2  0
  5  6  1  0
  6  7  1  0
  6  8  2  0
  8  9  1  0
  9 10  1  0
  8 11  1  0
 11 12  1  0
 11 13  2  0
 13  4  1  0
M  END
> <Identifier>
3-Methyleugenol

> <SkinReaction>
1

$$$$

     RDKit          2D

 15 15  0  0  0  0  0  0  0  0999 V2000
    0.1729   -2.2539    0.0000 O   0  0  0  0  0  0  0  0  0  0  0  0
    0.4050   -0.7720    0.0000 C   0  0  0  0  0  0  0  0  0  0  0  0
   -0.7623    0.1700    0.0000 C   0  0  0  0  0  0  0  0  0  0  0  0
   -2.1617   -0.3700    0.0000 C   0  0  0  0  0  0  0  0  0  0  0  0
   -2.3938   -1.8519    0.0000 O   0  0  0  0  0  0  0  0  0  0  0  0
   -3.3291    0.5720    0.0000 C   0  0  0  0  0  0  0  0  0  0  0  0
   -4.4964    1.5140    0.0000 F   0  0  0  0  0  0  0  0  0  0  0  0
   -4.2711   -0.5953    0.0000 F   0  0  0  0  0  0  0  0  0  0  0  0
   -2.3871    1.7393    0.0000 F   0  0  0  0  0  0  0  0  0  0  0  0
    1.8045   -0.2320    0.0000 C   0  0  0  0  0  0  0  0  0  0  0  0
    2.0366    1.2499    0.0000 C   0  0  0  0  0  0  0  0  0  0  0  0
    3.4360    1.7899    0.0000 C   0  0  0  0  0  0  0  0  0  0  0  0
    4.6034    0.8479    0.0000 C   0  0  0  0  0  0  0  0  0  0  0  0
    4.3713   -0.6340    0.0000 C   0  0  0  0  0  0  0  0  0  0  0  0
    2.9718   -1.1740    0.0000 C   0  0  0  0  0  0  0  0  0  0  0  0
  1  2  2  0
  2  3  1  0
  3  4  1  0
  4  5  2  0
  4  6  1  0
  6  7  1  0
  6  8  1  0
  6  9  1  0
  2 10  1  0
 10 11  2  0
 11 12  1  0
 12 13  2  0
 13 14  1  0
 14 15  2  0
 15 10  1  0
M  END
> <Identifier>
4,4,4-Trifluoro-1- phenylbutane-1,3- dione

> <SkinReaction>
1

$$$$

     RDKit          2D

 11 11  0  0  0  0  0  0  0  0999 V2000
   -4.9158    0.0902    0.0000 C   0  0  0  0  0  0  0  0  0  0  0  0
   -3.4534    0.4237    0.0000 C   0  0  0  0  0  0  0  0  0  0  0  0
   -2.4333   -0.6760    0.0000 C   0  0  0  0  0  0  0  0  0  0  0  0
   -0.9709   -0.3425    0.0000 C   0  0  0  0  0  0  0  0  0  0  0  0
   -0.5285    1.0907    0.0000 C   0  0  0  0  0  0  0  0  0  0  0  0
    0.9340    1.4243    0.0000 C   0  0  0  0  0  0  0  0  0  0  0  0
    1.9540    0.3245    0.0000 C   0  0  0  0  0  0  0  0  0  0  0  0
    3.4165    0.6580    0.0000 O   0  0  0  0  0  0  0  0  0  0  0  0
    4.4365   -0.4418    0.0000 C   0  0  0  0  0  0  0  0  0  0  0  0
    1.5116   -1.1088    0.0000 C   0  0  0  0  0  0  0  0  0  0  0  0
    0.0492   -1.4423    0.0000 C   0  0  0  0  0  0  0  0  0  0  0  0
  1  2  2  0
  2  3  1  0
  3  4  1  0
  4  5  2  0
  5  6  1  0
  6  7  2  0
  7  8  1  0
  8  9  1  0
  7 10  1  0
 10 11  2  0
 11  4  1  0
M  END
> <Identifier>
4-Allylanisole

> <SkinReaction>
1

$$$$

     RDKit          2D

  9  9  0  0  0  0  0  0  0  0999 V2000
   -3.4653    0.6606    0.0000 C   0  0  0  0  0  0  0  0  0  0  0  0
   -2.5353   -0.5163    0.0000 N   0  0  0  0  0  0  0  0  0  0  0  0
   -1.0511   -0.2995    0.0000 C   0  0  0  0  0  0  0  0  0  0  0  0
   -0.4968    1.0944    0.0000 C   0  0  0  0  0  0  0  0  0  0  0  0
    0.9874    1.3113    0.0000 C   0  0  0  0  0  0  0  0  0  0  0  0
    1.9174    0.1343    0.0000 C   0  0  0  0  0  0  0  0  0  0  0  0
    3.4016    0.3512    0.0000 O   0  0  0  0  0  0  0  0  0  0  0  0
    1.3631   -1.2595    0.0000 C   0  0  0  0  0  0  0  0  0  0  0  0
   -0.1211   -1.4764    0.0000 C   0  0  0  0  0  0  0  0  0  0  0  0
  1  2  1  0
  2  3  1  0
  3  4  2  0
  4  5  1  0
  5  6  2  0
  6  7  1  0
  6  8  1  0
  8  9  2  0
  9  3  1  0
M  END
> <Identifier>
4-Methylamino- phenol sulfate

> <SkinReaction>
1

$$$$

     RDKit          2D

  8  8  0  0  0  0  0  0  0  0999 V2000
    3.0000    0.0000    0.0000 N   0  0  0  0  0  0  0  0  0  0  0  0
    1.5000   -0.0000    0.0000 C   0  0  0  0  0  0  0  0  0  0  0  0
    0.7500   -1.2990    0.0000 C   0  0  0  0  0  0  0  0  0  0  0  0
   -0.7500   -1.2990    0.0000 C   0  0  0  0  0  0  0  0  0  0  0  0
   -1.5000    0.0000    0.0000 C   0  0  0  0  0  0  0  0  0  0  0  0
   -3.0000    0.0000    0.0000 N   0  0  0  0  0  0  0  0  0  0  0  0
   -0.7500    1.2990    0.0000 C   0  0  0  0  0  0  0  0  0  0  0  0
    0.7500    1.2990    0.0000 C   0  0  0  0  0  0  0  0  0  0  0  0
  1  2  1  0
  2  3  2  0
  3  4  1  0
  4  5  2  0
  5  6  1  0
  5  7  1  0
  7  8  2  0
  8  2  1  0
M  END
> <Identifier>
4-Phenylene-diamine

> <SkinReaction>
1

$$$$

     RDKit          2D

  9  9  0  0  0  0  0  0  0  0999 V2000
    2.6931   -0.9264    0.0000 C   0  0  0  0  0  0  0  0  0  0  0  0
    1.2325   -0.5848    0.0000 C   0  0  0  0  0  0  0  0  0  0  0  0
    0.2064   -1.6788    0.0000 C   0  0  0  0  0  0  0  0  0  0  0  0
   -1.2542   -1.3372    0.0000 C   0  0  0  0  0  0  0  0  0  0  0  0
   -1.6886    0.0985    0.0000 C   0  0  0  0  0  0  0  0  0  0  0  0
   -3.1492    0.4401    0.0000 N   0  0  0  0  0  0  0  0  0  0  0  0
   -0.6625    1.1926    0.0000 C   0  0  0  0  0  0  0  0  0  0  0  0
    0.7981    0.8510    0.0000 C   0  0  0  0  0  0  0  0  0  0  0  0
    1.8243    1.9450    0.0000 O   0  0  0  0  0  0  0  0  0  0  0  0
  1  2  1  0
  2  3  2  0
  3  4  1  0
  4  5  2  0
  5  6  1  0
  5  7  1  0
  7  8  2  0
  8  9  1  0
  8  2  1  0
M  END
> <Identifier>
5-Amino-O-Cresol

> <SkinReaction>
1

$$$$

     RDKit          2D

  8  8  0  0  0  0  0  0  0  0999 V2000
   -2.0314   -1.6317    0.0000 C   0  0  0  0  0  0  0  0  0  0  0  0
   -0.8178   -0.7500    0.0000 N   0  0  0  0  0  0  0  0  0  0  0  0
    0.6088   -1.2135    0.0000 S   0  0  0  0  0  0  0  0  0  0  0  0
    1.4904    0.0000    0.0000 C   0  0  0  0  0  0  0  0  0  0  0  0
    2.9904    0.0000    0.0000 Cl  0  0  0  0  0  0  0  0  0  0  0  0
    0.6088    1.2135    0.0000 C   0  0  0  0  0  0  0  0  0  0  0  0
   -0.8178    0.7500    0.0000 C   0  0  0  0  0  0  0  0  0  0  0  0
   -2.0314    1.6317    0.0000 O   0  0  0  0  0  0  0  0  0  0  0  0
  1  2  1  0
  2  3  1  0
  3  4  1  0
  4  5  1  0
  4  6  2  0
  6  7  1  0
  7  8  2  0
  7  2  1  0
M  END
> <Identifier>
5-Chloro-2-methyl- 4-isothiazolin-3-one

> <SkinReaction>
1

$$$$

     RDKit          2D

  9  8  0  0  0  0  0  0  0  0999 V2000
    3.0997    0.7094    0.0000 C   0  0  0  0  0  0  0  0  0  0  0  0
    1.9487   -0.2525    0.0000 C   0  0  0  0  0  0  0  0  0  0  0  0
    2.2062   -1.7302    0.0000 O   0  0  0  0  0  0  0  0  0  0  0  0
    0.5402    0.2633    0.0000 C   0  0  0  0  0  0  0  0  0  0  0  0
    0.2826    1.7410    0.0000 O   0  0  0  0  0  0  0  0  0  0  0  0
   -0.6108   -0.6986    0.0000 C   0  0  0  0  0  0  0  0  0  0  0  0
   -2.0193   -0.1828    0.0000 C   0  0  0  0  0  0  0  0  0  0  0  0
   -3.1703   -1.1447    0.0000 C   0  0  0  0  0  0  0  0  0  0  0  0
   -2.2769    1.2950    0.0000 C   0  0  0  0  0  0  0  0  0  0  0  0
  1  2  1  0
  2  3  2  0
  2  4  1  0
  4  5  2  0
  4  6  1  0
  6  7  1  0
  7  8  1  0
  7  9  1  0
M  END
> <Identifier>
5-Methyl-2,3-hexanedione

> <SkinReaction>
1

$$$$

     RDKit          2D

 13 13  0  0  0  0  0  0  0  0999 V2000
    4.5108   -1.2622    0.0000 C   0  0  0  0  0  0  0  0  0  0  0  0
    3.0185   -1.1105    0.0000 C   0  0  0  0  0  0  0  0  0  0  0  0
    2.4038    0.2578    0.0000 C   0  0  0  0  0  0  0  0  0  0  0  0
    0.9115    0.4095    0.0000 C   0  0  0  0  0  0  0  0  0  0  0  0
    0.0339   -0.8070    0.0000 C   0  0  0  0  0  0  0  0  0  0  0  0
   -1.4584   -0.6552    0.0000 C   0  0  0  0  0  0  0  0  0  0  0  0
   -2.3360   -1.8717    0.0000 O   0  0  0  0  0  0  0  0  0  0  0  0
   -1.7212   -3.2400    0.0000 C   0  0  0  0  0  0  0  0  0  0  0  0
   -2.0731    0.7130    0.0000 C   0  0  0  0  0  0  0  0  0  0  0  0
   -3.5654    0.8648    0.0000 O   0  0  0  0  0  0  0  0  0  0  0  0
   -1.1956    1.9295    0.0000 C   0  0  0  0  0  0  0  0  0  0  0  0
    0.2968    1.7778    0.0000 C   0  0  0  0  0  0  0  0  0  0  0  0
    1.1743    2.9943    0.0000 C   0  0  0  0  0  0  0  0  0  0  0  0
  1  2  2  0
  2  3  1  0
  3  4  1  0
  4  5  2  0
  5  6  1  0
  6  7  1  0
  7  8  1  0
  6  9  2  0
  9 10  1  0
  9 11  1  0
 11 12  2  0
 12 13  1  0
 12  4  1  0
M  END
> <Identifier>
5-Methyleugenol

> <SkinReaction>
1

$$$$

     RDKit          2D

 13 13  0  0  0  0  0  0  0  0999 V2000
   -3.5050    2.1952    0.0000 C   0  0  0  0  0  0  0  0  0  0  0  0
   -2.2597    1.3589    0.0000 C   0  0  0  0  0  0  0  0  0  0  0  0
   -2.3614   -0.1376    0.0000 C   0  0  0  0  0  0  0  0  0  0  0  0
   -1.1161   -0.9739    0.0000 C   0  0  0  0  0  0  0  0  0  0  0  0
   -2.1559   -2.0550    0.0000 C   0  0  0  0  0  0  0  0  0  0  0  0
   -0.5088    0.3976    0.0000 C   0  0  0  0  0  0  0  0  0  0  0  0
    0.9827    0.5574    0.0000 C   0  0  0  0  0  0  0  0  0  0  0  0
    1.5900    1.9290    0.0000 O   0  0  0  0  0  0  0  0  0  0  0  0
    3.0815    2.0888    0.0000 C   0  0  0  0  0  0  0  0  0  0  0  0
    1.8668   -0.6543    0.0000 C   0  0  0  0  0  0  0  0  0  0  0  0
    3.3583   -0.4945    0.0000 O   0  0  0  0  0  0  0  0  0  0  0  0
    1.2595   -2.0259    0.0000 C   0  0  0  0  0  0  0  0  0  0  0  0
   -0.2320   -2.1857    0.0000 C   0  0  0  0  0  0  0  0  0  0  0  0
  1  2  2  0
  2  3  1  0
  3  4  1  0
  4  5  1  0
  4  6  1  0
  6  7  2  0
  7  8  1  0
  8  9  1  0
  7 10  1  0
 10 11  2  0
 10 12  1  0
 12 13  1  0
 13  4  1  0
M  END
> <Identifier>
2-Methoxy-4-methyl-4-(prop-2-en-1-yl)cyclohex-2-en-1-one

> <SkinReaction>
1

$$$$

     RDKit          2D

 12 11  0  0  0  0  0  0  0  0999 V2000
    4.1848    2.1368    0.0000 C   0  0  0  0  0  0  0  0  0  0  0  0
    4.2113    0.6370    0.0000 C   0  0  0  0  0  0  0  0  0  0  0  0
    2.9257   -0.1358    0.0000 N   0  0  0  0  0  0  0  0  0  0  0  0
    2.9522   -1.6356    0.0000 C   0  0  0  0  0  0  0  0  0  0  0  0
    1.6666   -2.4084    0.0000 C   0  0  0  0  0  0  0  0  0  0  0  0
    1.6136    0.5911    0.0000 C   0  0  0  0  0  0  0  0  0  0  0  0
    0.3280   -0.1817    0.0000 C   0  0  0  0  0  0  0  0  0  0  0  0
   -0.9841    0.5452    0.0000 C   0  0  0  0  0  0  0  0  0  0  0  0
   -2.2696   -0.2276    0.0000 C   0  0  0  0  0  0  0  0  0  0  0  0
   -3.5817    0.4993    0.0000 C   0  0  0  0  0  0  0  0  0  0  0  0
   -4.8673   -0.2735    0.0000 C   0  0  0  0  0  0  0  0  0  0  0  0
   -6.1794    0.4534    0.0000 O   0  0  0  0  0  0  0  0  0  0  0  0
  1  2  1  0
  2  3  1  0
  3  4  1  0
  4  5  1  0
  3  6  1  0
  6  7  1  0
  7  8  1  0
  8  9  1  0
  9 10  1  0
 10 11  1  0
 11 12  1  0
M  END
> <Identifier>
6-(Diethylamino)- 1 -hexanol

> <SkinReaction>
1

$$$$

     RDKit          2D

 10  9  0  0  0  0  0  0  0  0999 V2000
   -5.8514   -0.2717    0.0000 C   0  0  0  0  0  0  0  0  0  0  0  0
   -4.5393    0.4553    0.0000 C   0  0  0  0  0  0  0  0  0  0  0  0
   -3.2537   -0.3176    0.0000 C   0  0  0  0  0  0  0  0  0  0  0  0
   -1.9416    0.4094    0.0000 C   0  0  0  0  0  0  0  0  0  0  0  0
   -0.6560   -0.3635    0.0000 C   0  0  0  0  0  0  0  0  0  0  0  0
    0.6560    0.3635    0.0000 C   0  0  0  0  0  0  0  0  0  0  0  0
    1.9416   -0.4094    0.0000 C   0  0  0  0  0  0  0  0  0  0  0  0
    3.2537    0.3176    0.0000 C   0  0  0  0  0  0  0  0  0  0  0  0
    4.5393   -0.4553    0.0000 C   0  0  0  0  0  0  0  0  0  0  0  0
    5.8514    0.2717    0.0000 O   0  0  0  0  0  0  0  0  0  0  0  0
  1  2  1  0
  2  3  1  0
  3  4  2  3
  4  5  1  0
  5  6  1  0
  6  7  1  0
  7  8  1  0
  8  9  1  0
  9 10  2  0
M  END
> <Identifier>
6(E)-Nonenal

> <SkinReaction>
1

$$$$

     RDKit          2D

 13 13  0  0  0  0  0  0  0  0999 V2000
   -5.0142   -0.5474    0.0000 C   0  0  0  0  0  0  0  0  0  0  0  0
   -3.6268    0.0226    0.0000 C   0  0  0  0  0  0  0  0  0  0  0  0
   -2.4394   -0.8940    0.0000 C   0  0  0  0  0  0  0  0  0  0  0  0
   -1.0519   -0.3241    0.0000 C   0  0  0  0  0  0  0  0  0  0  0  0
   -0.8518    1.1625    0.0000 C   0  0  0  0  0  0  0  0  0  0  0  0
    0.5357    1.7325    0.0000 C   0  0  0  0  0  0  0  0  0  0  0  0
    0.7359    3.2191    0.0000 C   0  0  0  0  0  0  0  0  0  0  0  0
    1.7231    0.8158    0.0000 C   0  0  0  0  0  0  0  0  0  0  0  0
    3.1106    1.3858    0.0000 O   0  0  0  0  0  0  0  0  0  0  0  0
    1.5229   -0.6707    0.0000 C   0  0  0  0  0  0  0  0  0  0  0  0
    2.7103   -1.5874    0.0000 O   0  0  0  0  0  0  0  0  0  0  0  0
    2.5101   -3.0740    0.0000 C   0  0  0  0  0  0  0  0  0  0  0  0
    0.1354   -1.2407    0.0000 C   0  0  0  0  0  0  0  0  0  0  0  0
  1  2  2  0
  2  3  1  0
  3  4  1  0
  4  5  2  0
  5  6  1  0
  6  7  1  0
  6  8  2  0
  8  9  1  0
  8 10  1  0
 10 11  1  0
 11 12  1  0
 10 13  2  0
 13  4  1  0
M  END
> <Identifier>
6-Methyleugenol

> <SkinReaction>
1

$$$$

     RDKit          2D

 13 13  0  0  0  0  0  0  0  0999 V2000
   -5.0142   -0.5474    0.0000 C   0  0  0  0  0  0  0  0  0  0  0  0
   -3.6268    0.0226    0.0000 C   0  0  0  0  0  0  0  0  0  0  0  0
   -2.4394   -0.8940    0.0000 C   0  0  0  0  0  0  0  0  0  0  0  0
   -1.0519   -0.3241    0.0000 C   0  0  0  0  0  0  0  0  0  0  0  0
   -0.8518    1.1625    0.0000 C   0  0  0  0  0  0  0  0  0  0  0  0
    0.5357    1.7325    0.0000 C   0  0  0  0  0  0  0  0  0  0  0  0
    0.7359    3.2191    0.0000 C   0  0  0  0  0  0  0  0  0  0  0  0
    1.7231    0.8158    0.0000 C   0  0  0  0  0  0  0  0  0  0  0  0
    3.1106    1.3858    0.0000 O   0  0  0  0  0  0  0  0  0  0  0  0
    1.5229   -0.6707    0.0000 C   0  0  0  0  0  0  0  0  0  0  0  0
    2.7103   -1.5874    0.0000 O   0  0  0  0  0  0  0  0  0  0  0  0
    2.5101   -3.0740    0.0000 C   0  0  0  0  0  0  0  0  0  0  0  0
    0.1354   -1.2407    0.0000 C   0  0  0  0  0  0  0  0  0  0  0  0
  1  2  1  0
  2  3  2  3
  3  4  1  0
  4  5  2  0
  5  6  1  0
  6  7  1  0
  6  8  2  0
  8  9  1  0
  8 10  1  0
 10 11  1  0
 11 12  1  0
 10 13  2  0
 13  4  1  0
M  END
> <Identifier>
6-Methylisoeugenol

> <SkinReaction>
1

$$$$

     RDKit          2D

 15 15  0  0  0  0  0  0  0  0999 V2000
   -6.8375   -0.2979    0.0000 C   0  0  0  0  0  0  0  0  0  0  0  0
   -5.4593    0.2941    0.0000 C   0  0  0  0  0  0  0  0  0  0  0  0
   -4.2574   -0.6035    0.0000 C   0  0  0  0  0  0  0  0  0  0  0  0
   -2.8792   -0.0115    0.0000 C   0  0  0  0  0  0  0  0  0  0  0  0
   -1.6774   -0.9090    0.0000 C   0  0  0  0  0  0  0  0  0  0  0  0
   -0.2992   -0.3170    0.0000 C   0  0  0  0  0  0  0  0  0  0  0  0
   -0.1228    1.1726    0.0000 C   0  0  0  0  0  0  0  0  0  0  0  0
   -1.3246    2.0701    0.0000 O   0  0  0  0  0  0  0  0  0  0  0  0
    0.9026   -1.2146    0.0000 C   0  0  0  0  0  0  0  0  0  0  0  0
    2.2809   -0.6226    0.0000 C   0  0  0  0  0  0  0  0  0  0  0  0
    2.4573    0.8670    0.0000 C   0  0  0  0  0  0  0  0  0  0  0  0
    3.8355    1.4590    0.0000 C   0  0  0  0  0  0  0  0  0  0  0  0
    5.0373    0.5615    0.0000 C   0  0  0  0  0  0  0  0  0  0  0  0
    4.8609   -0.9281    0.0000 C   0  0  0  0  0  0  0  0  0  0  0  0
    3.4827   -1.5201    0.0000 C   0  0  0  0  0  0  0  0  0  0  0  0
  1  2  1  0
  2  3  1  0
  3  4  1  0
  4  5  1  0
  5  6  1  0
  6  7  1  0
  7  8  2  0
  6  9  2  3
  9 10  1  0
 10 11  2  0
 11 12  1  0
 12 13  2  0
 13 14  1  0
 14 15  2  0
 15 10  1  0
M  END
> <Identifier>
a-Amyl cinnamic aldehyde

> <SkinReaction>
1

$$$$

     RDKit          2D

 14 14  0  0  0  0  0  0  0  0999 V2000
   -5.9514    0.1731    0.0000 C   0  0  0  0  0  0  0  0  0  0  0  0
   -4.7347   -0.7042    0.0000 C   0  0  0  0  0  0  0  0  0  0  0  0
   -3.3666   -0.0892    0.0000 C   0  0  0  0  0  0  0  0  0  0  0  0
   -2.1499   -0.9665    0.0000 C   0  0  0  0  0  0  0  0  0  0  0  0
   -0.7818   -0.3514    0.0000 C   0  0  0  0  0  0  0  0  0  0  0  0
   -0.6304    1.1409    0.0000 C   0  0  0  0  0  0  0  0  0  0  0  0
   -1.8470    2.0182    0.0000 O   0  0  0  0  0  0  0  0  0  0  0  0
    0.4349   -1.2288    0.0000 C   0  0  0  0  0  0  0  0  0  0  0  0
    1.8030   -0.6137    0.0000 C   0  0  0  0  0  0  0  0  0  0  0  0
    1.9545    0.8786    0.0000 C   0  0  0  0  0  0  0  0  0  0  0  0
    3.3226    1.4936    0.0000 C   0  0  0  0  0  0  0  0  0  0  0  0
    4.5393    0.6163    0.0000 C   0  0  0  0  0  0  0  0  0  0  0  0
    4.3878   -0.8760    0.0000 C   0  0  0  0  0  0  0  0  0  0  0  0
    3.0197   -1.4910    0.0000 C   0  0  0  0  0  0  0  0  0  0  0  0
  1  2  1  0
  2  3  1  0
  3  4  1  0
  4  5  1  0
  5  6  1  0
  6  7  2  0
  5  8  2  3
  8  9  1  0
  9 10  2  0
 10 11  1  0
 11 12  2  0
 12 13  1  0
 13 14  2  0
 14  9  1  0
M  END
> <Identifier>
a-Butyl cinnamic aldehyde

> <SkinReaction>
1

$$$$

     RDKit          2D

 16 16  0  0  0  0  0  0  0  0999 V2000
   -7.5461    0.4205    0.0000 C   0  0  0  0  0  0  0  0  0  0  0  0
   -6.3276   -0.4543    0.0000 C   0  0  0  0  0  0  0  0  0  0  0  0
   -4.9607    0.1635    0.0000 C   0  0  0  0  0  0  0  0  0  0  0  0
   -3.7423   -0.7114    0.0000 C   0  0  0  0  0  0  0  0  0  0  0  0
   -2.3754   -0.0936    0.0000 C   0  0  0  0  0  0  0  0  0  0  0  0
   -1.1570   -0.9684    0.0000 C   0  0  0  0  0  0  0  0  0  0  0  0
    0.2099   -0.3506    0.0000 C   0  0  0  0  0  0  0  0  0  0  0  0
    0.3583    1.1420    0.0000 C   0  0  0  0  0  0  0  0  0  0  0  0
   -0.8602    2.0169    0.0000 O   0  0  0  0  0  0  0  0  0  0  0  0
    1.4284   -1.2254    0.0000 C   0  0  0  0  0  0  0  0  0  0  0  0
    2.7952   -0.6076    0.0000 C   0  0  0  0  0  0  0  0  0  0  0  0
    2.9436    0.8850    0.0000 C   0  0  0  0  0  0  0  0  0  0  0  0
    4.3105    1.5028    0.0000 C   0  0  0  0  0  0  0  0  0  0  0  0
    5.5290    0.6280    0.0000 C   0  0  0  0  0  0  0  0  0  0  0  0
    5.3806   -0.8647    0.0000 C   0  0  0  0  0  0  0  0  0  0  0  0
    4.0137   -1.4825    0.0000 C   0  0  0  0  0  0  0  0  0  0  0  0
  1  2  1  0
  2  3  1  0
  3  4  1  0
  4  5  1  0
  5  6  1  0
  6  7  1  0
  7  8  1  0
  8  9  2  0
  7 10  2  3
 10 11  1  0
 11 12  2  0
 12 13  1  0
 13 14  2  0
 14 15  1  0
 15 16  2  0
 16 11  1  0
M  END
> <Identifier>
a-Hexyl cinnamic aldehyde

> <SkinReaction>
1

$$$$

     RDKit          2D

 11 11  0  0  0  0  0  0  0  0999 V2000
   -3.3385   -1.2838    0.0000 C   0  0  0  0  0  0  0  0  0  0  0  0
   -2.0218   -0.5652    0.0000 C   0  0  0  0  0  0  0  0  0  0  0  0
   -1.9857    0.9344    0.0000 C   0  0  0  0  0  0  0  0  0  0  0  0
   -3.2664    1.7154    0.0000 O   0  0  0  0  0  0  0  0  0  0  0  0
   -0.7411   -1.3462    0.0000 C   0  0  0  0  0  0  0  0  0  0  0  0
    0.5756   -0.6277    0.0000 C   0  0  0  0  0  0  0  0  0  0  0  0
    0.6116    0.8719    0.0000 C   0  0  0  0  0  0  0  0  0  0  0  0
    1.9283    1.5905    0.0000 C   0  0  0  0  0  0  0  0  0  0  0  0
    3.2089    0.8095    0.0000 C   0  0  0  0  0  0  0  0  0  0  0  0
    3.1729   -0.6901    0.0000 C   0  0  0  0  0  0  0  0  0  0  0  0
    1.8562   -1.4087    0.0000 C   0  0  0  0  0  0  0  0  0  0  0  0
  1  2  1  0
  2  3  1  0
  3  4  2  0
  2  5  2  3
  5  6  1  0
  6  7  2  0
  7  8  1  0
  8  9  2  0
  9 10  1  0
 10 11  2  0
 11  6  1  0
M  END
> <Identifier>
alpha-Methyl cinnamic aldehyde

> <SkinReaction>
1

$$$$

     RDKit          2D

 10 10  0  0  0  0  0  0  0  0999 V2000
    1.9660   -1.7051    0.0000 C   0  0  0  0  0  0  0  0  0  0  0  0
    1.3951   -0.3180    0.0000 C   0  0  0  0  0  0  0  0  0  0  0  0
    2.3110    0.8699    0.0000 C   0  0  0  0  0  0  0  0  0  0  0  0
    3.7977    0.6707    0.0000 O   0  0  0  0  0  0  0  0  0  0  0  0
   -0.0916   -0.1188    0.0000 C   0  0  0  0  0  0  0  0  0  0  0  0
   -1.0075   -1.3067    0.0000 C   0  0  0  0  0  0  0  0  0  0  0  0
   -2.4942   -1.1075    0.0000 C   0  0  0  0  0  0  0  0  0  0  0  0
   -3.0650    0.2796    0.0000 C   0  0  0  0  0  0  0  0  0  0  0  0
   -2.1491    1.4676    0.0000 C   0  0  0  0  0  0  0  0  0  0  0  0
   -0.6624    1.2683    0.0000 C   0  0  0  0  0  0  0  0  0  0  0  0
  1  2  1  0
  2  3  1  0
  3  4  2  0
  2  5  1  0
  5  6  2  0
  6  7  1  0
  7  8  2  0
  8  9  1  0
  9 10  2  0
 10  5  1  0
M  END
> <Identifier>
a-Methyl phenylacetaldehyde

> <SkinReaction>
1

$$$$

     RDKit          2D

  7  7  0  0  0  0  0  0  0  0999 V2000
    2.5714    0.0000    0.0000 N   0  0  0  0  0  0  0  0  0  0  0  0
    1.0714   -0.0000    0.0000 C   0  0  0  0  0  0  0  0  0  0  0  0
    0.3214   -1.2990    0.0000 C   0  0  0  0  0  0  0  0  0  0  0  0
   -1.1786   -1.2990    0.0000 C   0  0  0  0  0  0  0  0  0  0  0  0
   -1.9286    0.0000    0.0000 C   0  0  0  0  0  0  0  0  0  0  0  0
   -1.1786    1.2990    0.0000 C   0  0  0  0  0  0  0  0  0  0  0  0
    0.3214    1.2990    0.0000 C   0  0  0  0  0  0  0  0  0  0  0  0
  1  2  1  0
  2  3  2  0
  3  4  1  0
  4  5  2  0
  5  6  1  0
  6  7  2  0
  7  2  1  0
M  END
> <Identifier>
Aniline

> <SkinReaction>
1

$$$$

     RDKit          2D

 14 15  0  0  0  0  0  0  0  0999 V2000
   -3.7089   -1.5634    0.0000 O   0  0  0  0  0  0  0  0  0  0  0  0
   -3.2492   -0.1356    0.0000 C   0  0  0  0  0  0  0  0  0  0  0  0
   -4.2558    0.9765    0.0000 O   0  0  0  0  0  0  0  0  0  0  0  0
   -1.7828    0.1801    0.0000 C   0  0  0  0  0  0  0  0  0  0  0  0
   -1.3230    1.6079    0.0000 C   0  0  0  0  0  0  0  0  0  0  0  0
    0.1434    1.9236    0.0000 C   0  0  0  0  0  0  0  0  0  0  0  0
    1.1500    0.8115    0.0000 C   0  0  0  0  0  0  0  0  0  0  0  0
    0.6903   -0.6162    0.0000 C   0  0  0  0  0  0  0  0  0  0  0  0
   -0.7761   -0.9320    0.0000 C   0  0  0  0  0  0  0  0  0  0  0  0
    1.9061   -1.4948    0.0000 C   0  0  0  0  0  0  0  0  0  0  0  0
    1.9100   -2.9947    0.0000 O   0  0  0  0  0  0  0  0  0  0  0  0
    3.1173   -0.6099    0.0000 O   0  0  0  0  0  0  0  0  0  0  0  0
    2.6500    0.8155    0.0000 C   0  0  0  0  0  0  0  0  0  0  0  0
    3.5285    2.0313    0.0000 O   0  0  0  0  0  0  0  0  0  0  0  0
  1  2  2  0
  2  3  1  0
  2  4  1  0
  4  5  2  0
  5  6  1  0
  6  7  2  0
  7  8  1  0
  8  9  2  0
  8 10  1  0
 10 11  2  0
 10 12  1  0
 12 13  1  0
 13 14  2  0
  9  4  1  0
 13  7  1  0
M  END
> <Identifier>
Benzene-1,3,4-tricarboxylic anhydride

> <SkinReaction>
1

$$$$

     RDKit          2D

 16 17  0  0  0  0  0  0  0  0999 V2000
   -1.2667   -2.5545    0.0000 O   0  0  0  0  0  0  0  0  0  0  0  0
   -1.2381   -1.0548    0.0000 C   0  0  0  0  0  0  0  0  0  0  0  0
    0.0749   -0.3296    0.0000 O   0  0  0  0  0  0  0  0  0  0  0  0
    1.3595   -1.1042    0.0000 C   0  0  0  0  0  0  0  0  0  0  0  0
    2.6725   -0.3790    0.0000 C   0  0  0  0  0  0  0  0  0  0  0  0
    3.9571   -1.1536    0.0000 C   0  0  0  0  0  0  0  0  0  0  0  0
    5.2701   -0.4284    0.0000 C   0  0  0  0  0  0  0  0  0  0  0  0
    5.2987    1.0713    0.0000 C   0  0  0  0  0  0  0  0  0  0  0  0
    4.0141    1.8459    0.0000 C   0  0  0  0  0  0  0  0  0  0  0  0
    2.7011    1.1207    0.0000 C   0  0  0  0  0  0  0  0  0  0  0  0
   -2.5227   -0.2802    0.0000 C   0  0  0  0  0  0  0  0  0  0  0  0
   -2.4941    1.2195    0.0000 C   0  0  0  0  0  0  0  0  0  0  0  0
   -3.7787    1.9941    0.0000 C   0  0  0  0  0  0  0  0  0  0  0  0
   -5.0917    1.2689    0.0000 C   0  0  0  0  0  0  0  0  0  0  0  0
   -5.1203   -0.2308    0.0000 C   0  0  0  0  0  0  0  0  0  0  0  0
   -3.8357   -1.0054    0.0000 C   0  0  0  0  0  0  0  0  0  0  0  0
  1  2  2  0
  2  3  1  0
  3  4  1  0
  4  5  1  0
  5  6  2  0
  6  7  1  0
  7  8  2  0
  8  9  1  0
  9 10  2  0
  2 11  1  0
 11 12  2  0
 12 13  1  0
 13 14  2  0
 14 15  1  0
 15 16  2  0
 10  5  1  0
 16 11  1  0
M  END
> <Identifier>
Benzyl benzoate

> <SkinReaction>
1

$$$$

     RDKit          2D

  8  8  0  0  0  0  0  0  0  0999 V2000
   -3.0851    0.4695    0.0000 Br  0  0  0  0  0  0  0  0  0  0  0  0
   -2.0677   -0.6327    0.0000 C   0  0  0  0  0  0  0  0  0  0  0  0
   -0.6045   -0.3028    0.0000 C   0  0  0  0  0  0  0  0  0  0  0  0
   -0.1586    1.1294    0.0000 C   0  0  0  0  0  0  0  0  0  0  0  0
    1.3047    1.4594    0.0000 C   0  0  0  0  0  0  0  0  0  0  0  0
    2.3221    0.3572    0.0000 C   0  0  0  0  0  0  0  0  0  0  0  0
    1.8762   -1.0750    0.0000 C   0  0  0  0  0  0  0  0  0  0  0  0
    0.4129   -1.4050    0.0000 C   0  0  0  0  0  0  0  0  0  0  0  0
  1  2  1  0
  2  3  1  0
  3  4  2  0
  4  5  1  0
  5  6  2  0
  6  7  1  0
  7  8  2  0
  8  3  1  0
M  END
> <Identifier>
Benzyl Bromide

> <SkinReaction>
1

$$$$

     RDKit          2D

 11 11  0  0  0  0  0  0  0  0999 V2000
   -4.2089    1.1758    0.0000 C   0  0  0  0  0  0  0  0  0  0  0  0
   -3.1764    0.0877    0.0000 C   0  0  0  0  0  0  0  0  0  0  0  0
   -3.6025   -1.3505    0.0000 O   0  0  0  0  0  0  0  0  0  0  0  0
   -1.7178    0.4378    0.0000 C   0  0  0  0  0  0  0  0  0  0  0  0
   -0.6853   -0.6503    0.0000 C   0  0  0  0  0  0  0  0  0  0  0  0
    0.7732   -0.3002    0.0000 C   0  0  0  0  0  0  0  0  0  0  0  0
    1.1993    1.1380    0.0000 C   0  0  0  0  0  0  0  0  0  0  0  0
    2.6579    1.4881    0.0000 C   0  0  0  0  0  0  0  0  0  0  0  0
    3.6904    0.4000    0.0000 C   0  0  0  0  0  0  0  0  0  0  0  0
    3.2643   -1.0382    0.0000 C   0  0  0  0  0  0  0  0  0  0  0  0
    1.8057   -1.3883    0.0000 C   0  0  0  0  0  0  0  0  0  0  0  0
  1  2  1  0
  2  3  2  0
  2  4  1  0
  4  5  2  3
  5  6  1  0
  6  7  2  0
  7  8  1  0
  8  9  2  0
  9 10  1  0
 10 11  2  0
 11  6  1  0
M  END
> <Identifier>
Benzylidene acetone

> <SkinReaction>
1

$$$$

     RDKit          2D

 25 28  0  0  0  0  0  0  0  0999 V2000
    0.1732   -1.4900    0.0000 C   0  0  0  0  0  0  0  0  0  0  0  0
   -0.0000   -0.0000    0.0000 C   0  0  0  0  0  0  0  0  0  0  0  0
   -0.1732    1.4900    0.0000 C   0  0  0  0  0  0  0  0  0  0  0  0
    1.4900    0.1732    0.0000 C   0  0  0  0  0  0  0  0  0  0  0  0
    2.3850   -1.0305    0.0000 C   0  0  0  0  0  0  0  0  0  0  0  0
    3.8749   -0.8573    0.0000 C   0  0  0  0  0  0  0  0  0  0  0  0
    4.4699    0.5196    0.0000 C   0  0  0  0  0  0  0  0  0  0  0  0
    5.9599    0.6929    0.0000 O   0  0  0  0  0  0  0  0  0  0  0  0
    6.8549   -0.5109    0.0000 C   0  0  0  0  0  0  0  0  0  0  0  0
    8.3448   -0.3377    0.0000 C   0  0  0  0  0  0  0  0  0  0  0  0
    9.5486    0.5573    0.0000 C   0  0  0  0  0  0  0  0  0  0  0  0
    9.7218   -0.9326    0.0000 O   0  0  0  0  0  0  0  0  0  0  0  0
    3.5749    1.7234    0.0000 C   0  0  0  0  0  0  0  0  0  0  0  0
    2.0849    1.5502    0.0000 C   0  0  0  0  0  0  0  0  0  0  0  0
   -1.4900   -0.1732    0.0000 C   0  0  0  0  0  0  0  0  0  0  0  0
   -2.3850    1.0305    0.0000 C   0  0  0  0  0  0  0  0  0  0  0  0
   -3.8749    0.8573    0.0000 C   0  0  0  0  0  0  0  0  0  0  0  0
   -4.4699   -0.5196    0.0000 C   0  0  0  0  0  0  0  0  0  0  0  0
   -5.9599   -0.6929    0.0000 O   0  0  0  0  0  0  0  0  0  0  0  0
   -6.8549    0.5109    0.0000 C   0  0  0  0  0  0  0  0  0  0  0  0
   -8.3448    0.3377    0.0000 C   0  0  0  0  0  0  0  0  0  0  0  0
   -9.5486   -0.5573    0.0000 C   0  0  0  0  0  0  0  0  0  0  0  0
   -9.7218    0.9326    0.0000 O   0  0  0  0  0  0  0  0  0  0  0  0
   -3.5749   -1.7234    0.0000 C   0  0  0  0  0  0  0  0  0  0  0  0
   -2.0849   -1.5502    0.0000 C   0  0  0  0  0  0  0  0  0  0  0  0
  1  2  1  0
  2  3  1  0
  2  4  1  0
  4  5  2  0
  5  6  1  0
  6  7  2  0
  7  8  1  0
  8  9  1  0
  9 10  1  0
 10 11  1  0
 11 12  1  0
  7 13  1  0
 13 14  2  0
  2 15  1  0
 15 16  2  0
 16 17  1  0
 17 18  2  0
 18 19  1  0
 19 20  1  0
 20 21  1  0
 21 22  1  0
 22 23  1  0
 18 24  1  0
 24 25  2  0
 14  4  1  0
 25 15  1  0
 12 10  1  0
 23 21  1  0
M  END
> <Identifier>
Diglycidyl ether of Bisphenol A

> <SkinReaction>
1

$$$$

     RDKit          2D

 10 10  0  0  0  0  0  0  0  0999 V2000
    3.7500    0.0000    0.0000 C   0  0  0  0  0  0  0  0  0  0  0  0
    2.2500   -0.0000    0.0000 C   0  0  0  0  0  0  0  0  0  0  0  0
    1.5000   -1.2990    0.0000 C   0  0  0  0  0  0  0  0  0  0  0  0
   -0.0000   -1.2990    0.0000 C   0  0  0  0  0  0  0  0  0  0  0  0
   -0.7500    0.0000    0.0000 C   0  0  0  0  0  0  0  0  0  0  0  0
   -2.2500    0.0000    0.0000 C   0  0  0  0  0  0  0  0  0  0  0  0
   -3.0000    1.2990    0.0000 C   0  0  0  0  0  0  0  0  0  0  0  0
   -3.0000   -1.2990    0.0000 C   0  0  0  0  0  0  0  0  0  0  0  0
    0.0000    1.2990    0.0000 C   0  0  0  0  0  0  0  0  0  0  0  0
    1.5000    1.2990    0.0000 C   0  0  0  0  0  0  0  0  0  0  0  0
  1  2  2  0
  2  3  1  0
  3  4  2  0
  4  5  1  0
  5  6  1  0
  6  7  1  0
  6  8  1  0
  5  9  1  0
  9 10  1  0
 10  2  1  0
M  END
> <Identifier>
b-Phellandrene

> <SkinReaction>
1

$$$$

     RDKit          2D

 16 17  0  0  0  0  0  0  0  0999 V2000
   -2.0315    4.0718    0.0000 O   0  0  0  0  0  0  0  0  0  0  0  0
   -1.7184    2.6049    0.0000 C   0  0  0  0  0  0  0  0  0  0  0  0
   -0.2914    2.1426    0.0000 C   0  0  0  0  0  0  0  0  0  0  0  0
    0.0218    0.6757    0.0000 C   0  0  0  0  0  0  0  0  0  0  0  0
    1.4488    0.2134    0.0000 C   0  0  0  0  0  0  0  0  0  0  0  0
    1.7620   -1.2535    0.0000 C   0  0  0  0  0  0  0  0  0  0  0  0
    3.1889   -1.7158    0.0000 C   0  0  0  0  0  0  0  0  0  0  0  0
    4.3028   -0.7111    0.0000 C   0  0  0  0  0  0  0  0  0  0  0  0
    3.9896    0.7558    0.0000 C   0  0  0  0  0  0  0  0  0  0  0  0
    2.5626    1.2181    0.0000 C   0  0  0  0  0  0  0  0  0  0  0  0
   -1.0920   -0.3290    0.0000 C   0  0  0  0  0  0  0  0  0  0  0  0
   -2.5190    0.1333    0.0000 C   0  0  0  0  0  0  0  0  0  0  0  0
   -3.6329   -0.8714    0.0000 C   0  0  0  0  0  0  0  0  0  0  0  0
   -3.3197   -2.3384    0.0000 C   0  0  0  0  0  0  0  0  0  0  0  0
   -1.8927   -2.8006    0.0000 C   0  0  0  0  0  0  0  0  0  0  0  0
   -0.7789   -1.7959    0.0000 C   0  0  0  0  0  0  0  0  0  0  0  0
  1  2  2  0
  2  3  1  0
  3  4  2  0
  4  5  1  0
  5  6  2  0
  6  7  1  0
  7  8  2  0
  8  9  1  0
  9 10  2  0
  4 11  1  0
 11 12  2  0
 12 13  1  0
 13 14  2  0
 14 15  1  0
 15 16  2  0
 10  5  1  0
 16 11  1  0
M  END
> <Identifier>
b-Phenylcinnamaldehyde

> <SkinReaction>
1

$$$$

     RDKit          2D

 23 22  0  0  0  0  0  0  0  0999 V2000
  -14.2894   -0.3587    0.0000 C   0  0  0  0  0  0  0  0  0  0  0  0
  -12.9904    0.3913    0.0000 C   0  0  0  0  0  0  0  0  0  0  0  0
  -11.6913   -0.3587    0.0000 C   0  0  0  0  0  0  0  0  0  0  0  0
  -10.3923    0.3913    0.0000 C   0  0  0  0  0  0  0  0  0  0  0  0
   -9.0933   -0.3587    0.0000 C   0  0  0  0  0  0  0  0  0  0  0  0
   -7.7942    0.3913    0.0000 C   0  0  0  0  0  0  0  0  0  0  0  0
   -6.4952   -0.3587    0.0000 C   0  0  0  0  0  0  0  0  0  0  0  0
   -5.1962    0.3913    0.0000 C   0  0  0  0  0  0  0  0  0  0  0  0
   -3.8971   -0.3587    0.0000 C   0  0  0  0  0  0  0  0  0  0  0  0
   -2.5981    0.3913    0.0000 C   0  0  0  0  0  0  0  0  0  0  0  0
   -1.2990   -0.3587    0.0000 C   0  0  0  0  0  0  0  0  0  0  0  0
    0.0000    0.3913    0.0000 C   0  0  0  0  0  0  0  0  0  0  0  0
    1.2990   -0.3587    0.0000 C   0  0  0  0  0  0  0  0  0  0  0  0
    2.5981    0.3913    0.0000 C   0  0  0  0  0  0  0  0  0  0  0  0
    3.8971   -0.3587    0.0000 C   0  0  0  0  0  0  0  0  0  0  0  0
    5.1962    0.3913    0.0000 C   0  0  0  0  0  0  0  0  0  0  0  0
    6.4952   -0.3587    0.0000 C   0  0  0  0  0  0  0  0  0  0  0  0
    7.7942    0.3913    0.0000 C   0  0  0  0  0  0  0  0  0  0  0  0
    9.0933   -0.3587    0.0000 C   0  0  0  0  0  0  0  0  0  0  0  0
   10.3923    0.3913    0.0000 C   0  0  0  0  0  0  0  0  0  0  0  0
   11.6913   -0.3587    0.0000 C   0  0  0  0  0  0  0  0  0  0  0  0
   12.9904    0.3913    0.0000 C   0  0  0  0  0  0  0  0  0  0  0  0
   14.2894   -0.3587    0.0000 Br  0  0  0  0  0  0  0  0  0  0  0  0
  1  2  1  0
  2  3  1  0
  3  4  1  0
  4  5  1  0
  5  6  1  0
  6  7  1  0
  7  8  1  0
  8  9  1  0
  9 10  1  0
 10 11  1  0
 11 12  1  0
 12 13  1  0
 13 14  1  0
 14 15  1  0
 15 16  1  0
 16 17  1  0
 17 18  1  0
 18 19  1  0
 19 20  1  0
 20 21  1  0
 21 22  1  0
 22 23  1  0
M  END
> <Identifier>
Bromodocosane

> <SkinReaction>
1

$$$$

     RDKit          2D

 13 12  0  0  0  0  0  0  0  0999 V2000
   -7.7942   -0.3462    0.0000 C   0  0  0  0  0  0  0  0  0  0  0  0
   -6.4952    0.4038    0.0000 C   0  0  0  0  0  0  0  0  0  0  0  0
   -5.1962   -0.3462    0.0000 C   0  0  0  0  0  0  0  0  0  0  0  0
   -3.8971    0.4038    0.0000 C   0  0  0  0  0  0  0  0  0  0  0  0
   -2.5981   -0.3462    0.0000 C   0  0  0  0  0  0  0  0  0  0  0  0
   -1.2990    0.4038    0.0000 C   0  0  0  0  0  0  0  0  0  0  0  0
    0.0000   -0.3462    0.0000 C   0  0  0  0  0  0  0  0  0  0  0  0
    1.2990    0.4038    0.0000 C   0  0  0  0  0  0  0  0  0  0  0  0
    2.5981   -0.3462    0.0000 C   0  0  0  0  0  0  0  0  0  0  0  0
    3.8971    0.4038    0.0000 C   0  0  0  0  0  0  0  0  0  0  0  0
    5.1962   -0.3462    0.0000 C   0  0  0  0  0  0  0  0  0  0  0  0
    6.4952    0.4038    0.0000 C   0  0  0  0  0  0  0  0  0  0  0  0
    7.7942   -0.3462    0.0000 Br  0  0  0  0  0  0  0  0  0  0  0  0
  1  2  1  0
  2  3  1  0
  3  4  1  0
  4  5  1  0
  5  6  1  0
  6  7  1  0
  7  8  1  0
  8  9  1  0
  9 10  1  0
 10 11  1  0
 11 12  1  0
 12 13  1  0
M  END
> <Identifier>
Bromododecane

> <SkinReaction>
1

$$$$

     RDKit          2D

 21 20  0  0  0  0  0  0  0  0999 V2000
  -12.9904   -0.3571    0.0000 C   0  0  0  0  0  0  0  0  0  0  0  0
  -11.6913    0.3929    0.0000 C   0  0  0  0  0  0  0  0  0  0  0  0
  -10.3923   -0.3571    0.0000 C   0  0  0  0  0  0  0  0  0  0  0  0
   -9.0933    0.3929    0.0000 C   0  0  0  0  0  0  0  0  0  0  0  0
   -7.7942   -0.3571    0.0000 C   0  0  0  0  0  0  0  0  0  0  0  0
   -6.4952    0.3929    0.0000 C   0  0  0  0  0  0  0  0  0  0  0  0
   -5.1962   -0.3571    0.0000 C   0  0  0  0  0  0  0  0  0  0  0  0
   -3.8971    0.3929    0.0000 C   0  0  0  0  0  0  0  0  0  0  0  0
   -2.5981   -0.3571    0.0000 C   0  0  0  0  0  0  0  0  0  0  0  0
   -1.2990    0.3929    0.0000 C   0  0  0  0  0  0  0  0  0  0  0  0
    0.0000   -0.3571    0.0000 C   0  0  0  0  0  0  0  0  0  0  0  0
    1.2990    0.3929    0.0000 C   0  0  0  0  0  0  0  0  0  0  0  0
    2.5981   -0.3571    0.0000 C   0  0  0  0  0  0  0  0  0  0  0  0
    3.8971    0.3929    0.0000 C   0  0  0  0  0  0  0  0  0  0  0  0
    5.1962   -0.3571    0.0000 C   0  0  0  0  0  0  0  0  0  0  0  0
    6.4952    0.3929    0.0000 C   0  0  0  0  0  0  0  0  0  0  0  0
    7.7942   -0.3571    0.0000 C   0  0  0  0  0  0  0  0  0  0  0  0
    9.0933    0.3929    0.0000 C   0  0  0  0  0  0  0  0  0  0  0  0
   10.3923   -0.3571    0.0000 C   0  0  0  0  0  0  0  0  0  0  0  0
   11.6913    0.3929    0.0000 C   0  0  0  0  0  0  0  0  0  0  0  0
   12.9904   -0.3571    0.0000 Br  0  0  0  0  0  0  0  0  0  0  0  0
  1  2  1  0
  2  3  1  0
  3  4  1  0
  4  5  1  0
  5  6  1  0
  6  7  1  0
  7  8  1  0
  8  9  1  0
  9 10  1  0
 10 11  1  0
 11 12  1  0
 12 13  1  0
 13 14  1  0
 14 15  1  0
 15 16  1  0
 16 17  1  0
 17 18  1  0
 18 19  1  0
 19 20  1  0
 20 21  1  0
M  END
> <Identifier>
Bromoeicosane

> <SkinReaction>
1

$$$$

     RDKit          2D

 18 17  0  0  0  0  0  0  0  0999 V2000
  -11.0437   -0.3156    0.0000 C   0  0  0  0  0  0  0  0  0  0  0  0
   -9.7406    0.4274    0.0000 C   0  0  0  0  0  0  0  0  0  0  0  0
   -8.4456   -0.3296    0.0000 C   0  0  0  0  0  0  0  0  0  0  0  0
   -7.1426    0.4134    0.0000 C   0  0  0  0  0  0  0  0  0  0  0  0
   -5.8476   -0.3436    0.0000 C   0  0  0  0  0  0  0  0  0  0  0  0
   -4.5446    0.3995    0.0000 C   0  0  0  0  0  0  0  0  0  0  0  0
   -3.2496   -0.3575    0.0000 C   0  0  0  0  0  0  0  0  0  0  0  0
   -1.9465    0.3855    0.0000 C   0  0  0  0  0  0  0  0  0  0  0  0
   -0.6515   -0.3715    0.0000 C   0  0  0  0  0  0  0  0  0  0  0  0
    0.6515    0.3715    0.0000 C   0  0  0  0  0  0  0  0  0  0  0  0
    1.9465   -0.3855    0.0000 C   0  0  0  0  0  0  0  0  0  0  0  0
    3.2496    0.3575    0.0000 C   0  0  0  0  0  0  0  0  0  0  0  0
    4.5446   -0.3995    0.0000 C   0  0  0  0  0  0  0  0  0  0  0  0
    5.8476    0.3436    0.0000 C   0  0  0  0  0  0  0  0  0  0  0  0
    7.1426   -0.4134    0.0000 C   0  0  0  0  0  0  0  0  0  0  0  0
    8.4456    0.3296    0.0000 C   0  0  0  0  0  0  0  0  0  0  0  0
    9.7406   -0.4274    0.0000 C   0  0  0  0  0  0  0  0  0  0  0  0
   11.0437    0.3156    0.0000 Br  0  0  0  0  0  0  0  0  0  0  0  0
  1  2  1  0
  2  3  1  0
  3  4  1  0
  4  5  1  0
  5  6  1  0
  6  7  1  0
  7  8  1  0
  8  9  1  0
  9 10  1  0
 10 11  1  0
 11 12  1  0
 12 13  1  0
 13 14  1  0
 14 15  1  0
 15 16  1  0
 16 17  1  0
 17 18  1  0
M  END
> <Identifier>
Bromoheptadecane

> <SkinReaction>
1

$$$$

     RDKit          2D

 17 16  0  0  0  0  0  0  0  0999 V2000
  -10.3923   -0.3529    0.0000 C   0  0  0  0  0  0  0  0  0  0  0  0
   -9.0933    0.3971    0.0000 C   0  0  0  0  0  0  0  0  0  0  0  0
   -7.7942   -0.3529    0.0000 C   0  0  0  0  0  0  0  0  0  0  0  0
   -6.4952    0.3971    0.0000 C   0  0  0  0  0  0  0  0  0  0  0  0
   -5.1962   -0.3529    0.0000 C   0  0  0  0  0  0  0  0  0  0  0  0
   -3.8971    0.3971    0.0000 C   0  0  0  0  0  0  0  0  0  0  0  0
   -2.5981   -0.3529    0.0000 C   0  0  0  0  0  0  0  0  0  0  0  0
   -1.2990    0.3971    0.0000 C   0  0  0  0  0  0  0  0  0  0  0  0
    0.0000   -0.3529    0.0000 C   0  0  0  0  0  0  0  0  0  0  0  0
    1.2990    0.3971    0.0000 C   0  0  0  0  0  0  0  0  0  0  0  0
    2.5981   -0.3529    0.0000 C   0  0  0  0  0  0  0  0  0  0  0  0
    3.8971    0.3971    0.0000 C   0  0  0  0  0  0  0  0  0  0  0  0
    5.1962   -0.3529    0.0000 C   0  0  0  0  0  0  0  0  0  0  0  0
    6.4952    0.3971    0.0000 C   0  0  0  0  0  0  0  0  0  0  0  0
    7.7942   -0.3529    0.0000 C   0  0  0  0  0  0  0  0  0  0  0  0
    9.0933    0.3971    0.0000 C   0  0  0  0  0  0  0  0  0  0  0  0
   10.3923   -0.3529    0.0000 Br  0  0  0  0  0  0  0  0  0  0  0  0
  1  2  1  0
  2  3  1  0
  3  4  1  0
  4  5  1  0
  5  6  1  0
  6  7  1  0
  7  8  1  0
  8  9  1  0
  9 10  1  0
 10 11  1  0
 11 12  1  0
 12 13  1  0
 13 14  1  0
 14 15  1  0
 15 16  1  0
 16 17  1  0
M  END
> <Identifier>
Bromohexadecane

> <SkinReaction>
1

$$$$

     RDKit          2D

  7  6  0  0  0  0  0  0  0  0999 V2000
   -3.8971   -0.3214    0.0000 C   0  0  0  0  0  0  0  0  0  0  0  0
   -2.5981    0.4286    0.0000 C   0  0  0  0  0  0  0  0  0  0  0  0
   -1.2990   -0.3214    0.0000 C   0  0  0  0  0  0  0  0  0  0  0  0
    0.0000    0.4286    0.0000 C   0  0  0  0  0  0  0  0  0  0  0  0
    1.2990   -0.3214    0.0000 C   0  0  0  0  0  0  0  0  0  0  0  0
    2.5981    0.4286    0.0000 C   0  0  0  0  0  0  0  0  0  0  0  0
    3.8971   -0.3214    0.0000 Br  0  0  0  0  0  0  0  0  0  0  0  0
  1  2  1  0
  2  3  1  0
  3  4  1  0
  4  5  1  0
  5  6  1  0
  6  7  1  0
M  END
> <Identifier>
Bromohexane

> <SkinReaction>
1

$$$$

     RDKit          2D

 19 18  0  0  0  0  0  0  0  0999 V2000
  -11.6913   -0.3553    0.0000 C   0  0  0  0  0  0  0  0  0  0  0  0
  -10.3923    0.3947    0.0000 C   0  0  0  0  0  0  0  0  0  0  0  0
   -9.0933   -0.3553    0.0000 C   0  0  0  0  0  0  0  0  0  0  0  0
   -7.7942    0.3947    0.0000 C   0  0  0  0  0  0  0  0  0  0  0  0
   -6.4952   -0.3553    0.0000 C   0  0  0  0  0  0  0  0  0  0  0  0
   -5.1962    0.3947    0.0000 C   0  0  0  0  0  0  0  0  0  0  0  0
   -3.8971   -0.3553    0.0000 C   0  0  0  0  0  0  0  0  0  0  0  0
   -2.5981    0.3947    0.0000 C   0  0  0  0  0  0  0  0  0  0  0  0
   -1.2990   -0.3553    0.0000 C   0  0  0  0  0  0  0  0  0  0  0  0
    0.0000    0.3947    0.0000 C   0  0  0  0  0  0  0  0  0  0  0  0
    1.2990   -0.3553    0.0000 C   0  0  0  0  0  0  0  0  0  0  0  0
    2.5981    0.3947    0.0000 C   0  0  0  0  0  0  0  0  0  0  0  0
    3.8971   -0.3553    0.0000 C   0  0  0  0  0  0  0  0  0  0  0  0
    5.1962    0.3947    0.0000 C   0  0  0  0  0  0  0  0  0  0  0  0
    6.4952   -0.3553    0.0000 C   0  0  0  0  0  0  0  0  0  0  0  0
    7.7942    0.3947    0.0000 C   0  0  0  0  0  0  0  0  0  0  0  0
    9.0933   -0.3553    0.0000 C   0  0  0  0  0  0  0  0  0  0  0  0
   10.3923    0.3947    0.0000 C   0  0  0  0  0  0  0  0  0  0  0  0
   11.6913   -0.3553    0.0000 Br  0  0  0  0  0  0  0  0  0  0  0  0
  1  2  1  0
  2  3  1  0
  3  4  1  0
  4  5  1  0
  5  6  1  0
  6  7  1  0
  7  8  1  0
  8  9  1  0
  9 10  1  0
 10 11  1  0
 11 12  1  0
 12 13  1  0
 13 14  1  0
 14 15  1  0
 15 16  1  0
 16 17  1  0
 17 18  1  0
 18 19  1  0
M  END
> <Identifier>
Bromooctadecane

> <SkinReaction>
1

$$$$

     RDKit          2D

 16 15  0  0  0  0  0  0  0  0999 V2000
   -9.7451   -0.3086    0.0000 C   0  0  0  0  0  0  0  0  0  0  0  0
   -8.4410    0.4326    0.0000 C   0  0  0  0  0  0  0  0  0  0  0  0
   -7.1471   -0.3263    0.0000 C   0  0  0  0  0  0  0  0  0  0  0  0
   -5.8430    0.4149    0.0000 C   0  0  0  0  0  0  0  0  0  0  0  0
   -4.5491   -0.3440    0.0000 C   0  0  0  0  0  0  0  0  0  0  0  0
   -3.2450    0.3971    0.0000 C   0  0  0  0  0  0  0  0  0  0  0  0
   -1.9511   -0.3617    0.0000 C   0  0  0  0  0  0  0  0  0  0  0  0
   -0.6469    0.3794    0.0000 C   0  0  0  0  0  0  0  0  0  0  0  0
    0.6469   -0.3794    0.0000 C   0  0  0  0  0  0  0  0  0  0  0  0
    1.9511    0.3617    0.0000 C   0  0  0  0  0  0  0  0  0  0  0  0
    3.2450   -0.3971    0.0000 C   0  0  0  0  0  0  0  0  0  0  0  0
    4.5491    0.3440    0.0000 C   0  0  0  0  0  0  0  0  0  0  0  0
    5.8430   -0.4149    0.0000 C   0  0  0  0  0  0  0  0  0  0  0  0
    7.1471    0.3263    0.0000 C   0  0  0  0  0  0  0  0  0  0  0  0
    8.4410   -0.4326    0.0000 C   0  0  0  0  0  0  0  0  0  0  0  0
    9.7451    0.3086    0.0000 Br  0  0  0  0  0  0  0  0  0  0  0  0
  1  2  1  0
  2  3  1  0
  3  4  1  0
  4  5  1  0
  5  6  1  0
  6  7  1  0
  7  8  1  0
  8  9  1  0
  9 10  1  0
 10 11  1  0
 11 12  1  0
 12 13  1  0
 13 14  1  0
 14 15  1  0
 15 16  1  0
M  END
> <Identifier>
Bromopentadecane

> <SkinReaction>
1

$$$$

     RDKit          2D

 15 14  0  0  0  0  0  0  0  0999 V2000
   -9.0933   -0.3500    0.0000 C   0  0  0  0  0  0  0  0  0  0  0  0
   -7.7942    0.4000    0.0000 C   0  0  0  0  0  0  0  0  0  0  0  0
   -6.4952   -0.3500    0.0000 C   0  0  0  0  0  0  0  0  0  0  0  0
   -5.1962    0.4000    0.0000 C   0  0  0  0  0  0  0  0  0  0  0  0
   -3.8971   -0.3500    0.0000 C   0  0  0  0  0  0  0  0  0  0  0  0
   -2.5981    0.4000    0.0000 C   0  0  0  0  0  0  0  0  0  0  0  0
   -1.2990   -0.3500    0.0000 C   0  0  0  0  0  0  0  0  0  0  0  0
    0.0000    0.4000    0.0000 C   0  0  0  0  0  0  0  0  0  0  0  0
    1.2990   -0.3500    0.0000 C   0  0  0  0  0  0  0  0  0  0  0  0
    2.5981    0.4000    0.0000 C   0  0  0  0  0  0  0  0  0  0  0  0
    3.8971   -0.3500    0.0000 C   0  0  0  0  0  0  0  0  0  0  0  0
    5.1962    0.4000    0.0000 C   0  0  0  0  0  0  0  0  0  0  0  0
    6.4952   -0.3500    0.0000 C   0  0  0  0  0  0  0  0  0  0  0  0
    7.7942    0.4000    0.0000 C   0  0  0  0  0  0  0  0  0  0  0  0
    9.0933   -0.3500    0.0000 Br  0  0  0  0  0  0  0  0  0  0  0  0
  1  2  1  0
  2  3  1  0
  3  4  1  0
  4  5  1  0
  5  6  1  0
  6  7  1  0
  7  8  1  0
  8  9  1  0
  9 10  1  0
 10 11  1  0
 11 12  1  0
 12 13  1  0
 13 14  1  0
 14 15  1  0
M  END
> <Identifier>
Bromotetradecane

> <SkinReaction>
1

$$$$

     RDKit          2D

 14 13  0  0  0  0  0  0  0  0999 V2000
   -8.4468   -0.2996    0.0000 C   0  0  0  0  0  0  0  0  0  0  0  0
   -7.1411    0.4388    0.0000 C   0  0  0  0  0  0  0  0  0  0  0  0
   -5.8488   -0.3228    0.0000 C   0  0  0  0  0  0  0  0  0  0  0  0
   -4.5431    0.4156    0.0000 C   0  0  0  0  0  0  0  0  0  0  0  0
   -3.2508   -0.3460    0.0000 C   0  0  0  0  0  0  0  0  0  0  0  0
   -1.9451    0.3924    0.0000 C   0  0  0  0  0  0  0  0  0  0  0  0
   -0.6528   -0.3692    0.0000 C   0  0  0  0  0  0  0  0  0  0  0  0
    0.6528    0.3692    0.0000 C   0  0  0  0  0  0  0  0  0  0  0  0
    1.9451   -0.3924    0.0000 C   0  0  0  0  0  0  0  0  0  0  0  0
    3.2508    0.3460    0.0000 C   0  0  0  0  0  0  0  0  0  0  0  0
    4.5431   -0.4156    0.0000 C   0  0  0  0  0  0  0  0  0  0  0  0
    5.8488    0.3228    0.0000 C   0  0  0  0  0  0  0  0  0  0  0  0
    7.1411   -0.4388    0.0000 C   0  0  0  0  0  0  0  0  0  0  0  0
    8.4468    0.2996    0.0000 Br  0  0  0  0  0  0  0  0  0  0  0  0
  1  2  1  0
  2  3  1  0
  3  4  1  0
  4  5  1  0
  5  6  1  0
  6  7  1  0
  7  8  1  0
  8  9  1  0
  9 10  1  0
 10 11  1  0
 11 12  1  0
 12 13  1  0
 13 14  1  0
M  END
> <Identifier>
Bromotridecane

> <SkinReaction>
1

$$$$

     RDKit          2D

 12 11  0  0  0  0  0  0  0  0999 V2000
   -7.1488   -0.2878    0.0000 C   0  0  0  0  0  0  0  0  0  0  0  0
   -5.8407    0.4463    0.0000 C   0  0  0  0  0  0  0  0  0  0  0  0
   -4.5509   -0.3195    0.0000 C   0  0  0  0  0  0  0  0  0  0  0  0
   -3.2428    0.4146    0.0000 C   0  0  0  0  0  0  0  0  0  0  0  0
   -1.9530   -0.3512    0.0000 C   0  0  0  0  0  0  0  0  0  0  0  0
   -0.6449    0.3829    0.0000 C   0  0  0  0  0  0  0  0  0  0  0  0
    0.6449   -0.3829    0.0000 C   0  0  0  0  0  0  0  0  0  0  0  0
    1.9530    0.3512    0.0000 C   0  0  0  0  0  0  0  0  0  0  0  0
    3.2428   -0.4146    0.0000 C   0  0  0  0  0  0  0  0  0  0  0  0
    4.5509    0.3195    0.0000 C   0  0  0  0  0  0  0  0  0  0  0  0
    5.8407   -0.4463    0.0000 C   0  0  0  0  0  0  0  0  0  0  0  0
    7.1488    0.2878    0.0000 Br  0  0  0  0  0  0  0  0  0  0  0  0
  1  2  1  0
  2  3  1  0
  3  4  1  0
  4  5  1  0
  5  6  1  0
  6  7  1  0
  7  8  1  0
  8  9  1  0
  9 10  1  0
 10 11  1  0
 11 12  1  0
M  END
> <Identifier>
Bromoundecane

> <SkinReaction>
1

$$$$

     RDKit          2D

  9  8  0  0  0  0  0  0  0  0999 V2000
   -4.3306    0.1526    0.0000 C   0  0  0  0  0  0  0  0  0  0  0  0
   -2.9799    0.8049    0.0000 C   0  0  0  0  0  0  0  0  0  0  0  0
   -1.7396   -0.0387    0.0000 C   0  0  0  0  0  0  0  0  0  0  0  0
   -1.8501   -1.5346    0.0000 O   0  0  0  0  0  0  0  0  0  0  0  0
   -0.3889    0.6136    0.0000 O   0  0  0  0  0  0  0  0  0  0  0  0
    0.8514   -0.2300    0.0000 C   0  0  0  0  0  0  0  0  0  0  0  0
    2.2021    0.4223    0.0000 C   0  0  0  0  0  0  0  0  0  0  0  0
    3.4424   -0.4213    0.0000 C   0  0  0  0  0  0  0  0  0  0  0  0
    4.7932    0.2311    0.0000 C   0  0  0  0  0  0  0  0  0  0  0  0
  1  2  2  0
  2  3  1  0
  3  4  2  0
  3  5  1  0
  5  6  1  0
  6  7  1  0
  7  8  1  0
  8  9  1  0
M  END
> <Identifier>
Butyl acrylate

> <SkinReaction>
1

$$$$

     RDKit          2D

  9  9  0  0  0  0  0  0  0  0999 V2000
   -4.9865    0.5270    0.0000 C   0  0  0  0  0  0  0  0  0  0  0  0
   -3.7551   -0.3297    0.0000 C   0  0  0  0  0  0  0  0  0  0  0  0
   -2.3976    0.3084    0.0000 C   0  0  0  0  0  0  0  0  0  0  0  0
   -1.1663   -0.5482    0.0000 C   0  0  0  0  0  0  0  0  0  0  0  0
    0.1913    0.0899    0.0000 O   0  0  0  0  0  0  0  0  0  0  0  0
    1.4226   -0.7667    0.0000 C   0  0  0  0  0  0  0  0  0  0  0  0
    2.7801   -0.1286    0.0000 C   0  0  0  0  0  0  0  0  0  0  0  0
    4.2748   -0.2548    0.0000 C   0  0  0  0  0  0  0  0  0  0  0  0
    3.6367    1.1027    0.0000 O   0  0  0  0  0  0  0  0  0  0  0  0
  1  2  1  0
  2  3  1  0
  3  4  1  0
  4  5  1  0
  5  6  1  0
  6  7  1  0
  7  8  1  0
  8  9  1  0
  9  7  1  0
M  END
> <Identifier>
Butyl glycidyl ether

> <SkinReaction>
1

$$$$

     RDKit          2D

 19 19  0  0  0  0  0  0  0  0999 V2000
  -10.5887    0.1186    0.0000 C   0  0  0  0  0  0  0  0  0  0  0  0
   -9.2242    0.7417    0.0000 C   0  0  0  0  0  0  0  0  0  0  0  0
   -8.0024   -0.1285    0.0000 C   0  0  0  0  0  0  0  0  0  0  0  0
   -6.6379    0.4946    0.0000 C   0  0  0  0  0  0  0  0  0  0  0  0
   -5.4161   -0.3756    0.0000 C   0  0  0  0  0  0  0  0  0  0  0  0
   -4.0516    0.2475    0.0000 C   0  0  0  0  0  0  0  0  0  0  0  0
   -2.8298   -0.6227    0.0000 C   0  0  0  0  0  0  0  0  0  0  0  0
   -1.4653    0.0004    0.0000 C   0  0  0  0  0  0  0  0  0  0  0  0
   -0.2435   -0.8697    0.0000 C   0  0  0  0  0  0  0  0  0  0  0  0
    1.1210   -0.2467    0.0000 C   0  0  0  0  0  0  0  0  0  0  0  0
    2.3428   -1.1168    0.0000 C   0  0  0  0  0  0  0  0  0  0  0  0
    3.7073   -0.4938    0.0000 C   0  0  0  0  0  0  0  0  0  0  0  0
    5.0134   -1.2314    0.0000 N   0  0  0  0  0  0  0  0  0  0  0  0
    6.1186   -0.2172    0.0000 C   0  0  0  0  0  0  0  0  0  0  0  0
    7.4104    0.5451    0.0000 C   0  0  0  0  0  0  0  0  0  0  0  0
    7.0117   -1.4223    0.0000 C   0  0  0  0  0  0  0  0  0  0  0  0
    5.4955    1.1473    0.0000 C   0  0  0  0  0  0  0  0  0  0  0  0
    6.2332    2.4533    0.0000 O   0  0  0  0  0  0  0  0  0  0  0  0
    4.0053    0.9763    0.0000 O   0  0  0  0  0  0  0  0  0  0  0  0
  1  2  1  0
  2  3  1  0
  3  4  1  0
  4  5  1  0
  5  6  1  0
  6  7  1  0
  7  8  1  0
  8  9  1  0
  9 10  1  0
 10 11  1  0
 11 12  1  0
 12 13  2  0
 13 14  1  0
 14 15  1  0
 14 16  1  0
 14 17  1  0
 17 18  2  0
 17 19  1  0
 19 12  1  0
M  END
> <Identifier>
C11-azlactone

> <SkinReaction>
1

$$$$

     RDKit          2D

 12 12  0  0  0  0  0  0  0  0999 V2000
   -5.3187    0.6742    0.0000 C   0  0  0  0  0  0  0  0  0  0  0  0
   -4.2085   -0.3344    0.0000 C   0  0  0  0  0  0  0  0  0  0  0  0
   -2.7799    0.1228    0.0000 C   0  0  0  0  0  0  0  0  0  0  0  0
   -1.6696   -0.8858    0.0000 C   0  0  0  0  0  0  0  0  0  0  0  0
   -0.2410   -0.4286    0.0000 C   0  0  0  0  0  0  0  0  0  0  0  0
    0.9686   -1.3157    0.0000 N   0  0  0  0  0  0  0  0  0  0  0  0
    2.1861   -0.4394    0.0000 C   0  0  0  0  0  0  0  0  0  0  0  0
    3.5591    0.1647    0.0000 C   0  0  0  0  0  0  0  0  0  0  0  0
    2.9303   -1.7417    0.0000 C   0  0  0  0  0  0  0  0  0  0  0  0
    1.7288    0.9892    0.0000 C   0  0  0  0  0  0  0  0  0  0  0  0
    2.6159    2.1989    0.0000 O   0  0  0  0  0  0  0  0  0  0  0  0
    0.2289    0.9959    0.0000 O   0  0  0  0  0  0  0  0  0  0  0  0
  1  2  1  0
  2  3  1  0
  3  4  1  0
  4  5  1  0
  5  6  2  0
  6  7  1  0
  7  8  1  0
  7  9  1  0
  7 10  1  0
 10 11  2  0
 10 12  1  0
 12  5  1  0
M  END
> <Identifier>
C4-azlactone

> <SkinReaction>
1

$$$$

     RDKit          2D

 15 14  0  0  0  0  0  0  0  0999 V2000
   -9.0933   -0.3500    0.0000 C   0  0  0  0  0  0  0  0  0  0  0  0
   -7.7942    0.4000    0.0000 C   0  0  0  0  0  0  0  0  0  0  0  0
   -6.4952   -0.3500    0.0000 C   0  0  0  0  0  0  0  0  0  0  0  0
   -5.1962    0.4000    0.0000 C   0  0  0  0  0  0  0  0  0  0  0  0
   -3.8971   -0.3500    0.0000 C   0  0  0  0  0  0  0  0  0  0  0  0
   -2.5981    0.4000    0.0000 C   0  0  0  0  0  0  0  0  0  0  0  0
   -1.2990   -0.3500    0.0000 C   0  0  0  0  0  0  0  0  0  0  0  0
    0.0000    0.4000    0.0000 C   0  0  0  0  0  0  0  0  0  0  0  0
    1.2990   -0.3500    0.0000 C   0  0  0  0  0  0  0  0  0  0  0  0
    2.5981    0.4000    0.0000 C   0  0  0  0  0  0  0  0  0  0  0  0
    3.8971   -0.3500    0.0000 C   0  0  0  0  0  0  0  0  0  0  0  0
    5.1962    0.4000    0.0000 C   0  0  0  0  0  0  0  0  0  0  0  0
    6.4952   -0.3500    0.0000 C   0  0  0  0  0  0  0  0  0  0  0  0
    7.7942    0.4000    0.0000 C   0  0  0  0  0  0  0  0  0  0  0  0
    9.0933   -0.3500    0.0000 Cl  0  0  0  0  0  0  0  0  0  0  0  0
  1  2  1  0
  2  3  1  0
  3  4  1  0
  4  5  1  0
  5  6  1  0
  6  7  1  0
  7  8  1  0
  8  9  1  0
  9 10  1  0
 10 11  1  0
 11 12  1  0
 12 13  1  0
 13 14  1  0
 14 15  1  0
M  END
> <Identifier>
Chlorotetradecane

> <SkinReaction>
1

$$$$

     RDKit          2D

 10 10  0  0  0  0  0  0  0  0999 V2000
   -4.6450    0.6199    0.0000 O   0  0  0  0  0  0  0  0  0  0  0  0
   -3.5176   -0.3695    0.0000 C   0  0  0  0  0  0  0  0  0  0  0  0
   -2.0970    0.1121    0.0000 C   0  0  0  0  0  0  0  0  0  0  0  0
   -0.9696   -0.8774    0.0000 C   0  0  0  0  0  0  0  0  0  0  0  0
    0.4510   -0.3958    0.0000 C   0  0  0  0  0  0  0  0  0  0  0  0
    0.7442    1.0753    0.0000 C   0  0  0  0  0  0  0  0  0  0  0  0
    2.1647    1.5569    0.0000 C   0  0  0  0  0  0  0  0  0  0  0  0
    3.2921    0.5674    0.0000 C   0  0  0  0  0  0  0  0  0  0  0  0
    2.9989   -0.9036    0.0000 C   0  0  0  0  0  0  0  0  0  0  0  0
    1.5783   -1.3852    0.0000 C   0  0  0  0  0  0  0  0  0  0  0  0
  1  2  1  0
  2  3  1  0
  3  4  2  3
  4  5  1  0
  5  6  2  0
  6  7  1  0
  7  8  2  0
  8  9  1  0
  9 10  2  0
 10  5  1  0
M  END
> <Identifier>
Cinnamic alcohol

> <SkinReaction>
1

$$$$

     RDKit          2D

 10 10  0  0  0  0  0  0  0  0999 V2000
   -4.6450    0.6199    0.0000 O   0  0  0  0  0  0  0  0  0  0  0  0
   -3.5176   -0.3695    0.0000 C   0  0  0  0  0  0  0  0  0  0  0  0
   -2.0970    0.1121    0.0000 C   0  0  0  0  0  0  0  0  0  0  0  0
   -0.9696   -0.8774    0.0000 C   0  0  0  0  0  0  0  0  0  0  0  0
    0.4510   -0.3958    0.0000 C   0  0  0  0  0  0  0  0  0  0  0  0
    0.7442    1.0753    0.0000 C   0  0  0  0  0  0  0  0  0  0  0  0
    2.1647    1.5569    0.0000 C   0  0  0  0  0  0  0  0  0  0  0  0
    3.2921    0.5674    0.0000 C   0  0  0  0  0  0  0  0  0  0  0  0
    2.9989   -0.9036    0.0000 C   0  0  0  0  0  0  0  0  0  0  0  0
    1.5783   -1.3852    0.0000 C   0  0  0  0  0  0  0  0  0  0  0  0
  1  2  2  0
  2  3  1  0
  3  4  2  3
  4  5  1  0
  5  6  2  0
  6  7  1  0
  7  8  2  0
  8  9  1  0
  9 10  2  0
 10  5  1  0
M  END
> <Identifier>
Cinnamic aldehyde

> <SkinReaction>
1

$$$$

     RDKit          2D

 11 10  0  0  0  0  0  0  0  0999 V2000
   -4.7844    0.0062    0.0000 C   0  0  0  0  0  0  0  0  0  0  0  0
   -3.3313   -0.3660    0.0000 C   0  0  0  0  0  0  0  0  0  0  0  0
   -2.9270   -1.8104    0.0000 C   0  0  0  0  0  0  0  0  0  0  0  0
   -2.2825    0.7064    0.0000 C   0  0  0  0  0  0  0  0  0  0  0  0
   -0.8294    0.3343    0.0000 C   0  0  0  0  0  0  0  0  0  0  0  0
    0.2195    1.4067    0.0000 C   0  0  0  0  0  0  0  0  0  0  0  0
    1.6726    1.0345    0.0000 C   0  0  0  0  0  0  0  0  0  0  0  0
    2.7214    2.1069    0.0000 C   0  0  0  0  0  0  0  0  0  0  0  0
    2.0769   -0.4099    0.0000 C   0  0  0  0  0  0  0  0  0  0  0  0
    3.5300   -0.7821    0.0000 C   0  0  0  0  0  0  0  0  0  0  0  0
    3.9343   -2.2266    0.0000 O   0  0  0  0  0  0  0  0  0  0  0  0
  1  2  1  0
  2  3  1  0
  2  4  2  0
  4  5  1  0
  5  6  1  0
  6  7  1  0
  7  8  1  0
  7  9  2  3
  9 10  1  0
 10 11  2  0
M  END
> <Identifier>
Citral

> <SkinReaction>
1

$$$$

     RDKit          2D

 17 16  0  0  0  0  0  0  0  0999 V2000
  -10.3923   -0.3529    0.0000 C   0  0  0  0  0  0  0  0  0  0  0  0
   -9.0933    0.3971    0.0000 C   0  0  0  0  0  0  0  0  0  0  0  0
   -7.7942   -0.3529    0.0000 C   0  0  0  0  0  0  0  0  0  0  0  0
   -6.4952    0.3971    0.0000 C   0  0  0  0  0  0  0  0  0  0  0  0
   -5.1962   -0.3529    0.0000 C   0  0  0  0  0  0  0  0  0  0  0  0
   -3.8971    0.3971    0.0000 C   0  0  0  0  0  0  0  0  0  0  0  0
   -2.5981   -0.3529    0.0000 C   0  0  0  0  0  0  0  0  0  0  0  0
   -1.2990    0.3971    0.0000 C   0  0  0  0  0  0  0  0  0  0  0  0
    0.0000   -0.3529    0.0000 C   0  0  0  0  0  0  0  0  0  0  0  0
    1.2990    0.3971    0.0000 C   0  0  0  0  0  0  0  0  0  0  0  0
    2.5981   -0.3529    0.0000 C   0  0  0  0  0  0  0  0  0  0  0  0
    3.8971    0.3971    0.0000 C   0  0  0  0  0  0  0  0  0  0  0  0
    5.1962   -0.3529    0.0000 C   0  0  0  0  0  0  0  0  0  0  0  0
    6.4952    0.3971    0.0000 C   0  0  0  0  0  0  0  0  0  0  0  0
    7.7942   -0.3529    0.0000 C   0  0  0  0  0  0  0  0  0  0  0  0
    9.0933    0.3971    0.0000 C   0  0  0  0  0  0  0  0  0  0  0  0
   10.3923   -0.3529    0.0000 Cl  0  0  0  0  0  0  0  0  0  0  0  0
  1  2  1  0
  2  3  1  0
  3  4  1  0
  4  5  1  0
  5  6  1  0
  6  7  1  0
  7  8  1  0
  8  9  1  0
  9 10  1  0
 10 11  1  0
 11 12  1  0
 12 13  1  0
 13 14  1  0
 14 15  1  0
 15 16  1  0
 16 17  1  0
M  END
> <Identifier>
Clorohexadecane

> <SkinReaction>
1

$$$$

     RDKit          2D

 14 14  0  0  0  0  0  0  0  0999 V2000
   -4.6427   -0.7679    0.0000 C   0  0  0  0  0  0  0  0  0  0  0  0
   -3.2107   -0.3212    0.0000 C   0  0  0  0  0  0  0  0  0  0  0  0
   -2.8816    1.1423    0.0000 C   0  0  0  0  0  0  0  0  0  0  0  0
   -3.9844    2.1590    0.0000 O   0  0  0  0  0  0  0  0  0  0  0  0
   -2.1079   -1.3379    0.0000 C   0  0  0  0  0  0  0  0  0  0  0  0
   -0.6760   -0.8913    0.0000 C   0  0  0  0  0  0  0  0  0  0  0  0
   -0.3468    0.5722    0.0000 C   0  0  0  0  0  0  0  0  0  0  0  0
    1.0851    1.0189    0.0000 C   0  0  0  0  0  0  0  0  0  0  0  0
    2.1879    0.0021    0.0000 C   0  0  0  0  0  0  0  0  0  0  0  0
    3.6199    0.4488    0.0000 C   0  0  0  0  0  0  0  0  0  0  0  0
    4.7227   -0.5679    0.0000 C   0  0  0  0  0  0  0  0  0  0  0  0
    3.9490    1.9123    0.0000 C   0  0  0  0  0  0  0  0  0  0  0  0
    1.8588   -1.4613    0.0000 C   0  0  0  0  0  0  0  0  0  0  0  0
    0.4268   -1.9080    0.0000 C   0  0  0  0  0  0  0  0  0  0  0  0
  1  2  1  0
  2  3  1  0
  3  4  2  0
  2  5  1  0
  5  6  1  0
  6  7  2  0
  7  8  1  0
  8  9  2  0
  9 10  1  0
 10 11  1  0
 10 12  1  0
  9 13  1  0
 13 14  2  0
 14  6  1  0
M  END
> <Identifier>
Cyclamen aldehyde

> <SkinReaction>
1

$$$$

     RDKit          2D

  9  8  0  0  0  0  0  0  0  0999 V2000
   -3.7500    0.7217    0.0000 C   0  0  0  0  0  0  0  0  0  0  0  0
   -2.2500    0.7217    0.0000 C   0  0  0  0  0  0  0  0  0  0  0  0
   -1.5000   -0.5774    0.0000 O   0  0  0  0  0  0  0  0  0  0  0  0
    0.0000   -0.5774    0.0000 S   0  0  0  0  0  0  0  0  0  0  0  0
    0.0000   -2.0774    0.0000 O   0  0  0  0  0  0  0  0  0  0  0  0
    0.0000    0.9226    0.0000 O   0  0  0  0  0  0  0  0  0  0  0  0
    1.5000   -0.5774    0.0000 O   0  0  0  0  0  0  0  0  0  0  0  0
    2.2500    0.7217    0.0000 C   0  0  0  0  0  0  0  0  0  0  0  0
    3.7500    0.7217    0.0000 C   0  0  0  0  0  0  0  0  0  0  0  0
  1  2  1  0
  2  3  1  0
  3  4  1  0
  4  5  2  0
  4  6  2  0
  4  7  1  0
  7  8  1  0
  8  9  1  0
M  END
> <Identifier>
Diethyl sulfate

> <SkinReaction>
1

$$$$

     RDKit          2D

  7  6  0  0  0  0  0  0  0  0999 V2000
    2.7865    0.2956    0.0000 C   0  0  0  0  0  0  0  0  0  0  0  0
    1.6831   -0.7205    0.0000 C   0  0  0  0  0  0  0  0  0  0  0  0
    0.2514   -0.2730    0.0000 C   0  0  0  0  0  0  0  0  0  0  0  0
   -0.0769    1.1906    0.0000 C   0  0  0  0  0  0  0  0  0  0  0  0
   -1.5086    1.6381    0.0000 O   0  0  0  0  0  0  0  0  0  0  0  0
   -0.8520   -1.2892    0.0000 C   0  0  0  0  0  0  0  0  0  0  0  0
   -2.2837   -0.8417    0.0000 C   0  0  0  0  0  0  0  0  0  0  0  0
  1  2  1  0
  2  3  1  0
  3  4  1  0
  4  5  2  0
  3  6  1  0
  6  7  1  0
M  END
> <Identifier>
Diethylacetaldehyde

> <SkinReaction>
1

$$$$

     RDKit          2D

  7  6  0  0  0  0  0  0  0  0999 V2000
   -3.8971    0.3214    0.0000 N   0  0  0  0  0  0  0  0  0  0  0  0
   -2.5981   -0.4286    0.0000 C   0  0  0  0  0  0  0  0  0  0  0  0
   -1.2990    0.3214    0.0000 C   0  0  0  0  0  0  0  0  0  0  0  0
    0.0000   -0.4286    0.0000 N   0  0  0  0  0  0  0  0  0  0  0  0
    1.2990    0.3214    0.0000 C   0  0  0  0  0  0  0  0  0  0  0  0
    2.5981   -0.4286    0.0000 C   0  0  0  0  0  0  0  0  0  0  0  0
    3.8971    0.3214    0.0000 N   0  0  0  0  0  0  0  0  0  0  0  0
  1  2  1  0
  2  3  1  0
  3  4  1  0
  4  5  1  0
  5  6  1  0
  6  7  1  0
M  END
> <Identifier>
Diethylenetriamine

> <SkinReaction>
1

$$$$

     RDKit          2D

 12 12  0  0  0  0  0  0  0  0999 V2000
   -4.9340   -0.5146    0.0000 C   0  0  0  0  0  0  0  0  0  0  0  0
   -3.5752    0.1207    0.0000 C   0  0  0  0  0  0  0  0  0  0  0  0
   -2.3456   -0.7383    0.0000 C   0  0  0  0  0  0  0  0  0  0  0  0
   -0.9868   -0.1029    0.0000 C   0  0  0  0  0  0  0  0  0  0  0  0
   -0.8577    1.3915    0.0000 C   0  0  0  0  0  0  0  0  0  0  0  0
    0.5011    2.0269    0.0000 C   0  0  0  0  0  0  0  0  0  0  0  0
    1.7308    1.1678    0.0000 C   0  0  0  0  0  0  0  0  0  0  0  0
    3.0895    1.8032    0.0000 O   0  0  0  0  0  0  0  0  0  0  0  0
    1.6016   -0.3266    0.0000 C   0  0  0  0  0  0  0  0  0  0  0  0
    2.8313   -1.1856    0.0000 O   0  0  0  0  0  0  0  0  0  0  0  0
    2.7021   -2.6801    0.0000 C   0  0  0  0  0  0  0  0  0  0  0  0
    0.2428   -0.9620    0.0000 C   0  0  0  0  0  0  0  0  0  0  0  0
  1  2  1  0
  2  3  1  0
  3  4  1  0
  4  5  2  0
  5  6  1  0
  6  7  2  0
  7  8  1  0
  7  9  1  0
  9 10  1  0
 10 11  1  0
  9 12  2  0
 12  4  1  0
M  END
> <Identifier>
Dihydroeugenol

> <SkinReaction>
1

$$$$

     RDKit          2D

 26 26  0  0  0  0  0  0  0  0999 V2000
    4.9244   -5.2611    0.0000 C   0  0  0  0  0  0  0  0  0  0  0  0
    4.6090   -3.7947    0.0000 C   0  0  0  0  0  0  0  0  0  0  0  0
    3.1812   -3.3346    0.0000 C   0  0  0  0  0  0  0  0  0  0  0  0
    2.8658   -1.8682    0.0000 C   0  0  0  0  0  0  0  0  0  0  0  0
    3.6705   -1.3018    0.0000 O   0  0  0  0  0  0  0  0  0  0  0  0
    1.4380   -1.4082    0.0000 O   0  0  0  0  0  0  0  0  0  0  0  0
    1.1225    0.0583    0.0000 C   0  0  0  0  0  0  0  0  0  0  0  0
   -0.3052    0.5183    0.0000 C   0  0  0  0  0  0  0  0  0  0  0  0
   -1.4174   -0.4882    0.0000 C   0  0  0  0  0  0  0  0  0  0  0  0
   -1.1019   -1.9546    0.0000 C   0  0  0  0  0  0  0  0  0  0  0  0
   -2.8451   -0.0282    0.0000 C   0  0  0  0  0  0  0  0  0  0  0  0
   -3.9574   -1.0346    0.0000 C   0  0  0  0  0  0  0  0  0  0  0  0
   -5.3851   -0.5746    0.0000 C   0  0  0  0  0  0  0  0  0  0  0  0
   -6.4973   -1.5810    0.0000 C   0  0  0  0  0  0  0  0  0  0  0  0
   -7.9251   -1.1210    0.0000 C   0  0  0  0  0  0  0  0  0  0  0  0
   -9.0373   -2.1275    0.0000 C   0  0  0  0  0  0  0  0  0  0  0  0
   -0.6207    1.9847    0.0000 C   0  0  0  0  0  0  0  0  0  0  0  0
    0.4916    2.9912    0.0000 C   0  0  0  0  0  0  0  0  0  0  0  0
    0.1761    4.4576    0.0000 N   0  0  0  0  0  4  0  0  0  0  0  0
   -1.2516    4.9176    0.0000 O   0  0  0  0  0  0  0  0  0  0  0  0
    1.2883    5.4640    0.0000 O   0  0  0  0  0  1  0  0  0  0  0  0
    1.9193    2.5311    0.0000 C   0  0  0  0  0  0  0  0  0  0  0  0
    2.2348    1.0647    0.0000 C   0  0  0  0  0  0  0  0  0  0  0  0
    3.6625    0.6047    0.0000 N   0  0  0  0  0  4  0  0  0  0  0  0
    4.7748    1.6111    0.0000 O   0  0  0  0  0  0  0  0  0  0  0  0
    3.9852   -0.3250    0.0000 O   0  0  0  0  0  1  0  0  0  0  0  0
  1  2  1  0
  2  3  2  3
  3  4  1  0
  4  5  2  0
  4  6  1  0
  6  7  1  0
  7  8  2  0
  8  9  1  0
  9 10  1  0
  9 11  1  0
 11 12  1  0
 12 13  1  0
 13 14  1  0
 14 15  1  0
 15 16  1  0
  8 17  1  0
 17 18  2  0
 18 19  1  0
 19 20  2  0
 19 21  1  0
 18 22  1  0
 22 23  2  0
 23 24  1  0
 24 25  2  0
 24 26  1  0
 23  7  1  0
M  CHG  4  19   1  21  -1  24   1  26  -1
M  END
> <Identifier>
Dinocap

> <SkinReaction>
1

$$$$

     RDKit          2D

  9  8  0  0  0  0  0  0  0  0999 V2000
   -5.1962    0.3333    0.0000 N   0  0  0  0  0  0  0  0  0  0  0  0
   -3.8971   -0.4167    0.0000 C   0  0  0  0  0  0  0  0  0  0  0  0
   -2.5981    0.3333    0.0000 C   0  0  0  0  0  0  0  0  0  0  0  0
   -1.2990   -0.4167    0.0000 C   0  0  0  0  0  0  0  0  0  0  0  0
    0.0000    0.3333    0.0000 N   0  0  0  0  0  0  0  0  0  0  0  0
    1.2990   -0.4167    0.0000 C   0  0  0  0  0  0  0  0  0  0  0  0
    2.5981    0.3333    0.0000 C   0  0  0  0  0  0  0  0  0  0  0  0
    3.8971   -0.4167    0.0000 C   0  0  0  0  0  0  0  0  0  0  0  0
    5.1962    0.3333    0.0000 N   0  0  0  0  0  0  0  0  0  0  0  0
  1  2  1  0
  2  3  1  0
  3  4  1  0
  4  5  1  0
  5  6  1  0
  6  7  1  0
  7  8  1  0
  8  9  1  0
M  END
> <Identifier>
Dipropylene triamine

> <SkinReaction>
1

$$$$

     RDKit          2D

 17 16  0  0  0  0  0  0  0  0999 V2000
  -10.0198   -0.2096    0.0000 C   0  0  0  0  0  0  0  0  0  0  0  0
   -8.7006    0.5043    0.0000 C   0  0  0  0  0  0  0  0  0  0  0  0
   -7.4227   -0.2811    0.0000 C   0  0  0  0  0  0  0  0  0  0  0  0
   -6.1035    0.4328    0.0000 C   0  0  0  0  0  0  0  0  0  0  0  0
   -4.8256   -0.3526    0.0000 C   0  0  0  0  0  0  0  0  0  0  0  0
   -3.5064    0.3613    0.0000 C   0  0  0  0  0  0  0  0  0  0  0  0
   -2.2285   -0.4241    0.0000 C   0  0  0  0  0  0  0  0  0  0  0  0
   -0.9093    0.2898    0.0000 C   0  0  0  0  0  0  0  0  0  0  0  0
    0.3686   -0.4956    0.0000 C   0  0  0  0  0  0  0  0  0  0  0  0
    1.6878    0.2183    0.0000 C   0  0  0  0  0  0  0  0  0  0  0  0
    2.9657   -0.5671    0.0000 C   0  0  0  0  0  0  0  0  0  0  0  0
    4.2848    0.1468    0.0000 C   0  0  0  0  0  0  0  0  0  0  0  0
    5.5628   -0.6386    0.0000 O   0  0  0  0  0  0  0  0  0  0  0  0
    6.8819    0.0754    0.0000 S   0  0  0  0  0  0  0  0  0  0  0  0
    8.2011    0.7893    0.0000 C   0  0  0  0  0  0  0  0  0  0  0  0
    6.1680    1.3945    0.0000 O   0  0  0  0  0  0  0  0  0  0  0  0
    7.5959   -1.2438    0.0000 O   0  0  0  0  0  0  0  0  0  0  0  0
  1  2  1  0
  2  3  1  0
  3  4  1  0
  4  5  1  0
  5  6  1  0
  6  7  1  0
  7  8  1  0
  8  9  1  0
  9 10  1  0
 10 11  1  0
 11 12  1  0
 12 13  1  0
 13 14  1  0
 14 15  1  0
 14 16  2  0
 14 17  2  0
M  END
> <Identifier>
Dodecyl methanesulfonate

> <SkinReaction>
1

$$$$

     RDKit          2D

 15 16  0  0  0  0  0  0  0  0999 V2000
    6.0449    0.0456    0.0000 C   0  0  0  0  0  0  0  0  0  0  0  0
    4.6289   -0.4496    0.0000 C   0  0  0  0  0  0  0  0  0  0  0  0
    3.4922    0.5291    0.0000 O   0  0  0  0  0  0  0  0  0  0  0  0
    2.0763    0.0340    0.0000 C   0  0  0  0  0  0  0  0  0  0  0  0
    1.7971   -1.4398    0.0000 O   0  0  0  0  0  0  0  0  0  0  0  0
    0.9395    1.0126    0.0000 C   0  0  0  0  0  0  0  0  0  0  0  0
   -0.4764    0.5175    0.0000 C   0  0  0  0  0  0  0  0  0  0  0  0
   -0.7556   -0.9563    0.0000 C   0  0  0  0  0  0  0  0  0  0  0  0
   -2.2280   -1.2900    0.0000 C   0  0  0  0  0  0  0  0  0  0  0  0
   -3.7276   -1.3233    0.0000 C   0  0  0  0  0  0  0  0  0  0  0  0
   -4.2227    0.0926    0.0000 C   0  0  0  0  0  0  0  0  0  0  0  0
   -3.0291    1.0010    0.0000 C   0  0  0  0  0  0  0  0  0  0  0  0
   -1.6132    1.4962    0.0000 C   0  0  0  0  0  0  0  0  0  0  0  0
   -1.7963    0.1465    0.0000 N   0  0  0  0  0  0  0  0  0  0  0  0
   -1.1298    0.5839    0.0000 C   0  0  0  0  0  0  0  0  0  0  0  0
  1  2  1  0
  2  3  1  0
  3  4  1  0
  4  5  2  0
  4  6  1  0
  6  7  1  0
  7  8  1  0
  8  9  1  0
  9 10  1  0
 10 11  1  0
 11 12  1  0
 12 13  1  0
 12 14  1  0
 14 15  1  0
 13  7  1  0
 14  9  1  0
M  END
> <Identifier>
Ethyl (3-endo)-8- methyl-8- azabicyclo[3,2,1]- octane-3-acetate

> <SkinReaction>
1

$$$$

     RDKit          2D

  7  6  0  0  0  0  0  0  0  0999 V2000
   -3.1507    0.1928    0.0000 C   0  0  0  0  0  0  0  0  0  0  0  0
   -1.7864    0.8161    0.0000 C   0  0  0  0  0  0  0  0  0  0  0  0
   -0.5644   -0.0538    0.0000 C   0  0  0  0  0  0  0  0  0  0  0  0
   -0.7068   -1.5470    0.0000 O   0  0  0  0  0  0  0  0  0  0  0  0
    0.8000    0.5695    0.0000 O   0  0  0  0  0  0  0  0  0  0  0  0
    2.0220   -0.3004    0.0000 C   0  0  0  0  0  0  0  0  0  0  0  0
    3.3863    0.3229    0.0000 C   0  0  0  0  0  0  0  0  0  0  0  0
  1  2  2  0
  2  3  1  0
  3  4  2  0
  3  5  1  0
  5  6  1  0
  6  7  1  0
M  END
> <Identifier>
Ethyl acrylate

> <SkinReaction>
1

$$$$

     RDKit          2D

  9  8  0  0  0  0  0  0  0  0999 V2000
   -3.4806    0.5745    0.0000 C   0  0  0  0  0  0  0  0  0  0  0  0
   -2.0022    0.8281    0.0000 C   0  0  0  0  0  0  0  0  0  0  0  0
   -1.0433   -0.3254    0.0000 C   0  0  0  0  0  0  0  0  0  0  0  0
   -1.5629   -1.7326    0.0000 O   0  0  0  0  0  0  0  0  0  0  0  0
    0.4351   -0.0718    0.0000 C   0  0  0  0  0  0  0  0  0  0  0  0
    1.3939   -1.2253    0.0000 C   0  0  0  0  0  0  0  0  0  0  0  0
    2.8723   -0.9717    0.0000 O   0  0  0  0  0  0  0  0  0  0  0  0
    0.9546    1.3353    0.0000 C   0  0  0  0  0  0  0  0  0  0  0  0
    2.4331    1.5889    0.0000 O   0  0  0  0  0  0  0  0  0  0  0  0
  1  2  1  0
  2  3  1  0
  3  4  1  0
  3  5  1  0
  5  6  1  0
  6  7  1  0
  5  8  1  0
  8  9  1  0
M  END
> <Identifier>
2-(Hydroxymethyl)pentane-1,3-diol

> <SkinReaction>
1

$$$$

     RDKit          2D

 14 13  0  0  0  0  0  0  0  0999 V2000
   -5.8403    0.4514    0.0000 C   0  0  0  0  0  0  0  0  0  0  0  0
   -4.5511   -0.3155    0.0000 C   0  0  0  0  0  0  0  0  0  0  0  0
   -4.5708   -1.8154    0.0000 C   0  0  0  0  0  0  0  0  0  0  0  0
   -3.2424    0.4174    0.0000 C   0  0  0  0  0  0  0  0  0  0  0  0
   -3.2228    1.9173    0.0000 O   0  0  0  0  0  0  0  0  0  0  0  0
   -1.9533   -0.3495    0.0000 O   0  0  0  0  0  0  0  0  0  0  0  0
   -0.6446    0.3835    0.0000 C   0  0  0  0  0  0  0  0  0  0  0  0
    0.6446   -0.3835    0.0000 C   0  0  0  0  0  0  0  0  0  0  0  0
    1.9533    0.3495    0.0000 O   0  0  0  0  0  0  0  0  0  0  0  0
    3.2424   -0.4174    0.0000 C   0  0  0  0  0  0  0  0  0  0  0  0
    3.2228   -1.9173    0.0000 O   0  0  0  0  0  0  0  0  0  0  0  0
    4.5511    0.3155    0.0000 C   0  0  0  0  0  0  0  0  0  0  0  0
    4.5708    1.8154    0.0000 C   0  0  0  0  0  0  0  0  0  0  0  0
    5.8403   -0.4514    0.0000 C   0  0  0  0  0  0  0  0  0  0  0  0
  1  2  2  0
  2  3  1  0
  2  4  1  0
  4  5  2  0
  4  6  1  0
  6  7  1  0
  7  8  1  0
  8  9  1  0
  9 10  1  0
 10 11  2  0
 10 12  1  0
 12 13  2  0
 12 14  1  0
M  END
> <Identifier>
Ethylene dimethacrylate

> <SkinReaction>
1

$$$$

     RDKit          2D

  6  5  0  0  0  0  0  0  0  0999 V2000
   -1.5000    1.2990    0.0000 C   0  0  0  0  0  0  0  0  0  0  0  0
   -0.7500    0.0000    0.0000 C   0  0  0  0  0  0  0  0  0  0  0  0
   -1.5000   -1.2990    0.0000 C   0  0  0  0  0  0  0  0  0  0  0  0
    0.7500   -0.0000    0.0000 C   0  0  0  0  0  0  0  0  0  0  0  0
    1.5000    1.2990    0.0000 O   0  0  0  0  0  0  0  0  0  0  0  0
    1.5000   -1.2990    0.0000 O   0  0  0  0  0  0  0  0  0  0  0  0
  1  2  2  0
  2  3  1  0
  2  4  1  0
  4  5  2  0
  4  6  1  0
M  END
> <Identifier>
2-Methyl propenoic acid

> <SkinReaction>
1

$$$$

     RDKit          2D

 12 12  0  0  0  0  0  0  0  0999 V2000
   -4.9340   -0.5146    0.0000 C   0  0  0  0  0  0  0  0  0  0  0  0
   -3.5752    0.1207    0.0000 C   0  0  0  0  0  0  0  0  0  0  0  0
   -2.3456   -0.7383    0.0000 C   0  0  0  0  0  0  0  0  0  0  0  0
   -0.9868   -0.1029    0.0000 C   0  0  0  0  0  0  0  0  0  0  0  0
   -0.8577    1.3915    0.0000 C   0  0  0  0  0  0  0  0  0  0  0  0
    0.5011    2.0269    0.0000 C   0  0  0  0  0  0  0  0  0  0  0  0
    1.7308    1.1678    0.0000 C   0  0  0  0  0  0  0  0  0  0  0  0
    3.0895    1.8032    0.0000 O   0  0  0  0  0  0  0  0  0  0  0  0
    1.6016   -0.3266    0.0000 C   0  0  0  0  0  0  0  0  0  0  0  0
    2.8313   -1.1856    0.0000 O   0  0  0  0  0  0  0  0  0  0  0  0
    2.7021   -2.6801    0.0000 C   0  0  0  0  0  0  0  0  0  0  0  0
    0.2428   -0.9620    0.0000 C   0  0  0  0  0  0  0  0  0  0  0  0
  1  2  2  0
  2  3  1  0
  3  4  1  0
  4  5  2  0
  5  6  1  0
  6  7  2  0
  7  8  1  0
  7  9  1  0
  9 10  1  0
 10 11  1  0
  9 12  2  0
 12  4  1  0
M  END
> <Identifier>
Eugenol

> <SkinReaction>
1

$$$$

     RDKit          2D

 28 32  0  0  0  0  0  0  0  0999 V2000
    0.6172   -4.2134    0.0000 O   0  0  0  0  0  0  0  0  0  0  0  0
    0.4189   -2.7265    0.0000 C   0  0  0  0  0  0  0  0  0  0  0  0
    1.5052   -1.6922    0.0000 O   0  0  0  0  0  0  0  0  0  0  0  0
    0.8571   -0.3394    0.0000 C   0  0  0  0  0  0  0  0  0  0  0  0
    2.3565   -0.2976    0.0000 C   0  0  0  0  0  0  0  0  0  0  0  0
    3.1424   -1.5752    0.0000 C   0  0  0  0  0  0  0  0  0  0  0  0
    4.6419   -1.5334    0.0000 C   0  0  0  0  0  0  0  0  0  0  0  0
    5.3554   -0.2140    0.0000 C   0  0  0  0  0  0  0  0  0  0  0  0
    6.8548   -0.1722    0.0000 O   0  0  0  0  0  0  0  0  0  0  0  0
    4.5695    1.0637    0.0000 C   0  0  0  0  0  0  0  0  0  0  0  0
    3.0701    1.0219    0.0000 C   0  0  0  0  0  0  0  0  0  0  0  0
    2.2841    2.2995    0.0000 O   0  0  0  0  0  0  0  0  0  0  0  0
    0.7847    2.2577    0.0000 C   0  0  0  0  0  0  0  0  0  0  0  0
   -0.0012    3.5353    0.0000 C   0  0  0  0  0  0  0  0  0  0  0  0
   -1.5006    3.4935    0.0000 C   0  0  0  0  0  0  0  0  0  0  0  0
   -2.2865    4.7712    0.0000 O   0  0  0  0  0  0  0  0  0  0  0  0
   -2.2141    2.1741    0.0000 C   0  0  0  0  0  0  0  0  0  0  0  0
   -1.4282    0.8965    0.0000 C   0  0  0  0  0  0  0  0  0  0  0  0
    0.0712    0.9383    0.0000 C   0  0  0  0  0  0  0  0  0  0  0  0
   -0.6297   -0.5377    0.0000 C   0  0  0  0  0  0  0  0  0  0  0  0
   -1.8984   -0.2539    0.0000 C   0  0  0  0  0  0  0  0  0  0  0  0
   -2.6520   -0.5222    0.0000 C   0  0  0  0  0  0  0  0  0  0  0  0
   -2.7965   -1.3091    0.0000 C   0  0  0  0  0  0  0  0  0  0  0  0
   -4.8691   -2.0470    0.0000 N   0  0  0  0  0  0  0  0  0  0  0  0
   -6.0113   -1.0747    0.0000 C   0  0  0  0  0  0  0  0  0  0  0  0
   -7.1536   -0.1025    0.0000 S   0  0  0  0  0  0  0  0  0  0  0  0
   -2.1873   -1.8276    0.0000 C   0  0  0  0  0  0  0  0  0  0  0  0
   -0.9006   -2.0130    0.0000 C   0  0  0  0  0  0  0  0  0  0  0  0
  1  2  2  0
  2  3  1  0
  3  4  1  0
  4  5  1  0
  5  6  2  0
  6  7  1  0
  7  8  2  0
  8  9  1  0
  8 10  1  0
 10 11  2  0
 11 12  1  0
 12 13  1  0
 13 14  2  0
 14 15  1  0
 15 16  1  0
 15 17  2  0
 17 18  1  0
 18 19  2  0
  4 20  1  0
 20 21  2  0
 21 22  1  0
 22 23  2  0
 23 24  1  0
 24 25  2  0
 25 26  2  0
 23 27  1  0
 27 28  2  0
 28  2  1  0
 19  4  1  0
 28 20  1  0
 11  5  1  0
 19 13  1  0
M  END
> <Identifier>
Fluorescein isothiocyanate

> <SkinReaction>
1

$$$$

     RDKit          2D

 12 11  0  0  0  0  0  0  0  0999 V2000
    3.6537    1.8440    0.0000 C   0  0  0  0  0  0  0  0  0  0  0  0
    2.4879    0.9001    0.0000 C   0  0  0  0  0  0  0  0  0  0  0  0
    2.7225   -0.5815    0.0000 C   0  0  0  0  0  0  0  0  0  0  0  0
    1.5567   -1.5254    0.0000 C   0  0  0  0  0  0  0  0  0  0  0  0
    1.7912   -3.0069    0.0000 O   0  0  0  0  0  0  0  0  0  0  0  0
    1.0876    1.4377    0.0000 C   0  0  0  0  0  0  0  0  0  0  0  0
   -0.0782    0.4938    0.0000 C   0  0  0  0  0  0  0  0  0  0  0  0
   -1.4785    1.0315    0.0000 C   0  0  0  0  0  0  0  0  0  0  0  0
   -2.6443    0.0876    0.0000 C   0  0  0  0  0  0  0  0  0  0  0  0
   -1.7004   -1.0782    0.0000 C   0  0  0  0  0  0  0  0  0  0  0  0
   -3.5882    1.2534    0.0000 C   0  0  0  0  0  0  0  0  0  0  0  0
   -3.8101   -0.8563    0.0000 O   0  0  0  0  0  0  0  0  0  0  0  0
  1  2  1  0
  2  3  1  0
  3  4  1  0
  4  5  2  0
  2  6  1  0
  6  7  1  0
  7  8  1  0
  8  9  1  0
  9 10  1  0
  9 11  1  0
  9 12  1  0
M  END
> <Identifier>
Hydroxycitronellal

> <SkinReaction>
1

$$$$

     RDKit          2D

 13 12  0  0  0  0  0  0  0  0999 V2000
   -7.7942   -0.3462    0.0000 C   0  0  0  0  0  0  0  0  0  0  0  0
   -6.4952    0.4038    0.0000 C   0  0  0  0  0  0  0  0  0  0  0  0
   -5.1962   -0.3462    0.0000 C   0  0  0  0  0  0  0  0  0  0  0  0
   -3.8971    0.4038    0.0000 C   0  0  0  0  0  0  0  0  0  0  0  0
   -2.5981   -0.3462    0.0000 C   0  0  0  0  0  0  0  0  0  0  0  0
   -1.2990    0.4038    0.0000 C   0  0  0  0  0  0  0  0  0  0  0  0
    0.0000   -0.3462    0.0000 C   0  0  0  0  0  0  0  0  0  0  0  0
    1.2990    0.4038    0.0000 C   0  0  0  0  0  0  0  0  0  0  0  0
    2.5981   -0.3462    0.0000 C   0  0  0  0  0  0  0  0  0  0  0  0
    3.8971    0.4038    0.0000 C   0  0  0  0  0  0  0  0  0  0  0  0
    5.1962   -0.3462    0.0000 C   0  0  0  0  0  0  0  0  0  0  0  0
    6.4952    0.4038    0.0000 C   0  0  0  0  0  0  0  0  0  0  0  0
    7.7942   -0.3462    0.0000 I   0  0  0  0  0  0  0  0  0  0  0  0
  1  2  1  0
  2  3  1  0
  3  4  1  0
  4  5  1  0
  5  6  1  0
  6  7  1  0
  7  8  1  0
  8  9  1  0
  9 10  1  0
 10 11  1  0
 11 12  1  0
 12 13  1  0
M  END
> <Identifier>
Iododecane

> <SkinReaction>
1

$$$$

     RDKit          2D

 17 16  0  0  0  0  0  0  0  0999 V2000
  -10.3923   -0.3529    0.0000 C   0  0  0  0  0  0  0  0  0  0  0  0
   -9.0933    0.3971    0.0000 C   0  0  0  0  0  0  0  0  0  0  0  0
   -7.7942   -0.3529    0.0000 C   0  0  0  0  0  0  0  0  0  0  0  0
   -6.4952    0.3971    0.0000 C   0  0  0  0  0  0  0  0  0  0  0  0
   -5.1962   -0.3529    0.0000 C   0  0  0  0  0  0  0  0  0  0  0  0
   -3.8971    0.3971    0.0000 C   0  0  0  0  0  0  0  0  0  0  0  0
   -2.5981   -0.3529    0.0000 C   0  0  0  0  0  0  0  0  0  0  0  0
   -1.2990    0.3971    0.0000 C   0  0  0  0  0  0  0  0  0  0  0  0
    0.0000   -0.3529    0.0000 C   0  0  0  0  0  0  0  0  0  0  0  0
    1.2990    0.3971    0.0000 C   0  0  0  0  0  0  0  0  0  0  0  0
    2.5981   -0.3529    0.0000 C   0  0  0  0  0  0  0  0  0  0  0  0
    3.8971    0.3971    0.0000 C   0  0  0  0  0  0  0  0  0  0  0  0
    5.1962   -0.3529    0.0000 C   0  0  0  0  0  0  0  0  0  0  0  0
    6.4952    0.3971    0.0000 C   0  0  0  0  0  0  0  0  0  0  0  0
    7.7942   -0.3529    0.0000 C   0  0  0  0  0  0  0  0  0  0  0  0
    9.0933    0.3971    0.0000 C   0  0  0  0  0  0  0  0  0  0  0  0
   10.3923   -0.3529    0.0000 I   0  0  0  0  0  0  0  0  0  0  0  0
  1  2  1  0
  2  3  1  0
  3  4  1  0
  4  5  1  0
  5  6  1  0
  6  7  1  0
  7  8  1  0
  8  9  1  0
  9 10  1  0
 10 11  1  0
 11 12  1  0
 12 13  1  0
 13 14  1  0
 14 15  1  0
 15 16  1  0
 16 17  1  0
M  END
> <Identifier>
Iodohexadecane

> <SkinReaction>
1

$$$$

     RDKit          2D

 10  9  0  0  0  0  0  0  0  0999 V2000
   -5.8514   -0.2717    0.0000 C   0  0  0  0  0  0  0  0  0  0  0  0
   -4.5393    0.4553    0.0000 C   0  0  0  0  0  0  0  0  0  0  0  0
   -3.2537   -0.3176    0.0000 C   0  0  0  0  0  0  0  0  0  0  0  0
   -1.9416    0.4094    0.0000 C   0  0  0  0  0  0  0  0  0  0  0  0
   -0.6560   -0.3635    0.0000 C   0  0  0  0  0  0  0  0  0  0  0  0
    0.6560    0.3635    0.0000 C   0  0  0  0  0  0  0  0  0  0  0  0
    1.9416   -0.4094    0.0000 C   0  0  0  0  0  0  0  0  0  0  0  0
    3.2537    0.3176    0.0000 C   0  0  0  0  0  0  0  0  0  0  0  0
    4.5393   -0.4553    0.0000 C   0  0  0  0  0  0  0  0  0  0  0  0
    5.8514    0.2717    0.0000 I   0  0  0  0  0  0  0  0  0  0  0  0
  1  2  1  0
  2  3  1  0
  3  4  1  0
  4  5  1  0
  5  6  1  0
  6  7  1  0
  7  8  1  0
  8  9  1  0
  9 10  1  0
M  END
> <Identifier>
Iodononane

> <SkinReaction>
1

$$$$

     RDKit          2D

 15 14  0  0  0  0  0  0  0  0999 V2000
   -9.0933   -0.3500    0.0000 C   0  0  0  0  0  0  0  0  0  0  0  0
   -7.7942    0.4000    0.0000 C   0  0  0  0  0  0  0  0  0  0  0  0
   -6.4952   -0.3500    0.0000 C   0  0  0  0  0  0  0  0  0  0  0  0
   -5.1962    0.4000    0.0000 C   0  0  0  0  0  0  0  0  0  0  0  0
   -3.8971   -0.3500    0.0000 C   0  0  0  0  0  0  0  0  0  0  0  0
   -2.5981    0.4000    0.0000 C   0  0  0  0  0  0  0  0  0  0  0  0
   -1.2990   -0.3500    0.0000 C   0  0  0  0  0  0  0  0  0  0  0  0
    0.0000    0.4000    0.0000 C   0  0  0  0  0  0  0  0  0  0  0  0
    1.2990   -0.3500    0.0000 C   0  0  0  0  0  0  0  0  0  0  0  0
    2.5981    0.4000    0.0000 C   0  0  0  0  0  0  0  0  0  0  0  0
    3.8971   -0.3500    0.0000 C   0  0  0  0  0  0  0  0  0  0  0  0
    5.1962    0.4000    0.0000 C   0  0  0  0  0  0  0  0  0  0  0  0
    6.4952   -0.3500    0.0000 C   0  0  0  0  0  0  0  0  0  0  0  0
    7.7942    0.4000    0.0000 C   0  0  0  0  0  0  0  0  0  0  0  0
    9.0933   -0.3500    0.0000 I   0  0  0  0  0  0  0  0  0  0  0  0
  1  2  1  0
  2  3  1  0
  3  4  1  0
  4  5  1  0
  5  6  1  0
  6  7  1  0
  7  8  1  0
  8  9  1  0
  9 10  1  0
 10 11  1  0
 11 12  1  0
 12 13  1  0
 13 14  1  0
 14 15  1  0
M  END
> <Identifier>
Iodotetradecane

> <SkinReaction>
1

$$$$

     RDKit          2D

 12 12  0  0  0  0  0  0  0  0999 V2000
   -4.9340   -0.5146    0.0000 C   0  0  0  0  0  0  0  0  0  0  0  0
   -3.5752    0.1207    0.0000 C   0  0  0  0  0  0  0  0  0  0  0  0
   -2.3456   -0.7383    0.0000 C   0  0  0  0  0  0  0  0  0  0  0  0
   -0.9868   -0.1029    0.0000 C   0  0  0  0  0  0  0  0  0  0  0  0
   -0.8577    1.3915    0.0000 C   0  0  0  0  0  0  0  0  0  0  0  0
    0.5011    2.0269    0.0000 C   0  0  0  0  0  0  0  0  0  0  0  0
    1.7308    1.1678    0.0000 C   0  0  0  0  0  0  0  0  0  0  0  0
    3.0895    1.8032    0.0000 O   0  0  0  0  0  0  0  0  0  0  0  0
    1.6016   -0.3266    0.0000 C   0  0  0  0  0  0  0  0  0  0  0  0
    2.8313   -1.1856    0.0000 O   0  0  0  0  0  0  0  0  0  0  0  0
    2.7021   -2.6801    0.0000 C   0  0  0  0  0  0  0  0  0  0  0  0
    0.2428   -0.9620    0.0000 C   0  0  0  0  0  0  0  0  0  0  0  0
  1  2  1  0
  2  3  2  3
  3  4  1  0
  4  5  2  0
  5  6  1  0
  6  7  2  0
  7  8  1  0
  7  9  1  0
  9 10  1  0
 10 11  1  0
  9 12  2  0
 12  4  1  0
M  END
> <Identifier>
Isoeugenol

> <SkinReaction>
1

$$$$

     RDKit          2D

 11 10  0  0  0  0  0  0  0  0999 V2000
   -5.1962    0.6818    0.0000 C   0  0  0  0  0  0  0  0  0  0  0  0
   -3.8971   -0.0682    0.0000 C   0  0  0  0  0  0  0  0  0  0  0  0
   -3.8971   -1.5682    0.0000 C   0  0  0  0  0  0  0  0  0  0  0  0
   -2.5981    0.6818    0.0000 C   0  0  0  0  0  0  0  0  0  0  0  0
   -1.2990   -0.0682    0.0000 C   0  0  0  0  0  0  0  0  0  0  0  0
   -0.0000    0.6818    0.0000 C   0  0  0  0  0  0  0  0  0  0  0  0
    1.2990   -0.0682    0.0000 C   0  0  0  0  0  0  0  0  0  0  0  0
    2.5981    0.6818    0.0000 C   0  0  0  0  0  0  0  0  0  0  0  0
    3.8971   -0.0682    0.0000 C   0  0  0  0  0  0  0  0  0  0  0  0
    5.1962    0.6818    0.0000 O   0  0  0  0  0  0  0  0  0  0  0  0
    3.8971   -1.5682    0.0000 Cl  0  0  0  0  0  0  0  0  0  0  0  0
  1  2  1  0
  2  3  1  0
  2  4  1  0
  4  5  1  0
  5  6  1  0
  6  7  1  0
  7  8  1  0
  8  9  1  0
  9 10  2  0
  9 11  1  0
M  END
> <Identifier>
Isononanoyl chloride

> <SkinReaction>
1

$$$$

     RDKit          2D

 14 14  0  0  0  0  0  0  0  0999 V2000
   -5.0882   -1.5216    0.0000 C   0  0  0  0  0  0  0  0  0  0  0  0
   -3.9638   -0.5288    0.0000 C   0  0  0  0  0  0  0  0  0  0  0  0
   -2.5418   -1.0063    0.0000 C   0  0  0  0  0  0  0  0  0  0  0  0
   -1.4173   -0.0135    0.0000 C   0  0  0  0  0  0  0  0  0  0  0  0
   -1.7148    1.4567    0.0000 C   0  0  0  0  0  0  0  0  0  0  0  0
   -0.5903    2.4494    0.0000 C   0  0  0  0  0  0  0  0  0  0  0  0
    0.8316    1.9720    0.0000 C   0  0  0  0  0  0  0  0  0  0  0  0
    1.9561    2.9647    0.0000 O   0  0  0  0  0  0  0  0  0  0  0  0
    1.1292    0.5018    0.0000 C   0  0  0  0  0  0  0  0  0  0  0  0
    2.5511    0.0243    0.0000 O   0  0  0  0  0  0  0  0  0  0  0  0
    2.8487   -1.4459    0.0000 C   0  0  0  0  0  0  0  0  0  0  0  0
    4.2706   -1.9233    0.0000 C   0  0  0  0  0  0  0  0  0  0  0  0
    1.7242   -2.4386    0.0000 C   0  0  0  0  0  0  0  0  0  0  0  0
    0.0047   -0.4910    0.0000 C   0  0  0  0  0  0  0  0  0  0  0  0
  1  2  1  0
  2  3  2  3
  3  4  1  0
  4  5  2  0
  5  6  1  0
  6  7  2  0
  7  8  1  0
  7  9  1  0
  9 10  1  0
 10 11  1  0
 11 12  1  0
 11 13  1  0
  9 14  2  0
 14  4  1  0
M  END
> <Identifier>
Isopropyl isoeugenol

> <SkinReaction>
1

$$$$

     RDKit          2D

 19 18  0  0  0  0  0  0  0  0999 V2000
  -11.2249   -0.1782    0.0000 C   0  0  0  0  0  0  0  0  0  0  0  0
   -9.9016    0.5280    0.0000 C   0  0  0  0  0  0  0  0  0  0  0  0
   -8.6283   -0.2649    0.0000 C   0  0  0  0  0  0  0  0  0  0  0  0
   -7.3050    0.4413    0.0000 C   0  0  0  0  0  0  0  0  0  0  0  0
   -6.0317   -0.3516    0.0000 C   0  0  0  0  0  0  0  0  0  0  0  0
   -4.7083    0.3546    0.0000 C   0  0  0  0  0  0  0  0  0  0  0  0
   -3.4351   -0.4383    0.0000 C   0  0  0  0  0  0  0  0  0  0  0  0
   -2.1117    0.2680    0.0000 C   0  0  0  0  0  0  0  0  0  0  0  0
   -0.8384   -0.5250    0.0000 C   0  0  0  0  0  0  0  0  0  0  0  0
    0.4849    0.1813    0.0000 C   0  0  0  0  0  0  0  0  0  0  0  0
    1.7582   -0.6116    0.0000 C   0  0  0  0  0  0  0  0  0  0  0  0
    3.0815    0.0946    0.0000 C   0  0  0  0  0  0  0  0  0  0  0  0
    4.3548   -0.6983    0.0000 C   0  0  0  0  0  0  0  0  0  0  0  0
    5.6782    0.0079    0.0000 C   0  0  0  0  0  0  0  0  0  0  0  0
    5.7282    1.5071    0.0000 O   0  0  0  0  0  0  0  0  0  0  0  0
    6.9515   -0.7850    0.0000 O   0  0  0  0  0  0  0  0  0  0  0  0
    8.2748   -0.0787    0.0000 C   0  0  0  0  0  0  0  0  0  0  0  0
    9.5481   -0.8717    0.0000 C   0  0  0  0  0  0  0  0  0  0  0  0
    8.3248    1.4204    0.0000 C   0  0  0  0  0  0  0  0  0  0  0  0
  1  2  1  0
  2  3  1  0
  3  4  1  0
  4  5  1  0
  5  6  1  0
  6  7  1  0
  7  8  1  0
  8  9  1  0
  9 10  1  0
 10 11  1  0
 11 12  1  0
 12 13  1  0
 13 14  1  0
 14 15  2  0
 14 16  1  0
 16 17  1  0
 17 18  1  0
 17 19  1  0
M  END
> <Identifier>
Isopropyl myristate

> <SkinReaction>
1

$$$$

     RDKit          2D

 24 24  0  0  0  0  0  0  0  0999 V2000
  -13.1272    0.8249    0.0000 C   0  0  0  0  0  0  0  0  0  0  0  0
  -11.8837   -0.0140    0.0000 C   0  0  0  0  0  0  0  0  0  0  0  0
  -10.5355    0.6435    0.0000 C   0  0  0  0  0  0  0  0  0  0  0  0
   -9.2920   -0.1954    0.0000 C   0  0  0  0  0  0  0  0  0  0  0  0
   -7.9437    0.4621    0.0000 C   0  0  0  0  0  0  0  0  0  0  0  0
   -6.7002   -0.3768    0.0000 C   0  0  0  0  0  0  0  0  0  0  0  0
   -5.3520    0.2806    0.0000 C   0  0  0  0  0  0  0  0  0  0  0  0
   -4.1085   -0.5582    0.0000 C   0  0  0  0  0  0  0  0  0  0  0  0
   -2.7603    0.0992    0.0000 C   0  0  0  0  0  0  0  0  0  0  0  0
   -1.5168   -0.7396    0.0000 C   0  0  0  0  0  0  0  0  0  0  0  0
   -0.1685   -0.0822    0.0000 C   0  0  0  0  0  0  0  0  0  0  0  0
    1.0750   -0.9211    0.0000 C   0  0  0  0  0  0  0  0  0  0  0  0
    2.4232   -0.2636    0.0000 O   0  0  0  0  0  0  0  0  0  0  0  0
    3.6667   -1.1025    0.0000 C   0  0  0  0  0  0  0  0  0  0  0  0
    3.5620   -2.5988    0.0000 O   0  0  0  0  0  0  0  0  0  0  0  0
    5.0149   -0.4450    0.0000 C   0  0  0  0  0  0  0  0  0  0  0  0
    5.1197    1.0513    0.0000 C   0  0  0  0  0  0  0  0  0  0  0  0
    6.4679    1.7088    0.0000 C   0  0  0  0  0  0  0  0  0  0  0  0
    6.5727    3.2051    0.0000 O   0  0  0  0  0  0  0  0  0  0  0  0
    7.7114    0.8699    0.0000 C   0  0  0  0  0  0  0  0  0  0  0  0
    9.0597    1.5274    0.0000 O   0  0  0  0  0  0  0  0  0  0  0  0
    7.6067   -0.6264    0.0000 C   0  0  0  0  0  0  0  0  0  0  0  0
    8.8502   -1.4653    0.0000 O   0  0  0  0  0  0  0  0  0  0  0  0
    6.2584   -1.2839    0.0000 C   0  0  0  0  0  0  0  0  0  0  0  0
  1  2  1  0
  2  3  1  0
  3  4  1  0
  4  5  1  0
  5  6  1  0
  6  7  1  0
  7  8  1  0
  8  9  1  0
  9 10  1  0
 10 11  1  0
 11 12  1  0
 12 13  1  0
 13 14  1  0
 14 15  2  0
 14 16  1  0
 16 17  2  0
 17 18  1  0
 18 19  1  0
 18 20  2  0
 20 21  1  0
 20 22  1  0
 22 23  1  0
 22 24  2  0
 24 16  1  0
M  END
> <Identifier>
Lauryl gallate

> <SkinReaction>
1

$$$$

     RDKit          2D

 10 10  0  0  0  0  0  0  0  0999 V2000
    3.0000    1.2990    0.0000 C   0  0  0  0  0  0  0  0  0  0  0  0
    2.2500    0.0000    0.0000 C   0  0  0  0  0  0  0  0  0  0  0  0
    3.0000   -1.2990    0.0000 C   0  0  0  0  0  0  0  0  0  0  0  0
    0.7500   -0.0000    0.0000 C   0  0  0  0  0  0  0  0  0  0  0  0
   -0.0000   -1.2990    0.0000 C   0  0  0  0  0  0  0  0  0  0  0  0
   -1.5000   -1.2990    0.0000 C   0  0  0  0  0  0  0  0  0  0  0  0
   -2.2500    0.0000    0.0000 C   0  0  0  0  0  0  0  0  0  0  0  0
   -3.7500    0.0000    0.0000 C   0  0  0  0  0  0  0  0  0  0  0  0
   -1.5000    1.2990    0.0000 C   0  0  0  0  0  0  0  0  0  0  0  0
    0.0000    1.2990    0.0000 C   0  0  0  0  0  0  0  0  0  0  0  0
  1  2  2  0
  2  3  1  0
  2  4  1  0
  4  5  1  0
  5  6  1  0
  6  7  2  0
  7  8  1  0
  7  9  1  0
  9 10  1  0
 10  4  1  0
M  END
> <Identifier>
Limonene

> <SkinReaction>
1

$$$$

     RDKit          2D

 12 11  0  0  0  0  0  0  0  0999 V2000
   -4.7147    0.6284    0.0000 C   0  0  0  0  0  0  0  0  0  0  0  0
   -3.2342    0.8696    0.0000 C   0  0  0  0  0  0  0  0  0  0  0  0
   -2.2851   -0.2919    0.0000 C   0  0  0  0  0  0  0  0  0  0  0  0
   -3.4467   -1.2410    0.0000 C   0  0  0  0  0  0  0  0  0  0  0  0
   -1.3360   -1.4535    0.0000 O   0  0  0  0  0  0  0  0  0  0  0  0
   -1.1236    0.6572    0.0000 C   0  0  0  0  0  0  0  0  0  0  0  0
    0.2792    0.1258    0.0000 C   0  0  0  0  0  0  0  0  0  0  0  0
    1.4407    1.0749    0.0000 C   0  0  0  0  0  0  0  0  0  0  0  0
    2.8434    0.5435    0.0000 C   0  0  0  0  0  0  0  0  0  0  0  0
    4.0050    1.4926    0.0000 C   0  0  0  0  0  0  0  0  0  0  0  0
    3.0846   -0.9370    0.0000 C   0  0  0  0  0  0  0  0  0  0  0  0
    4.4873   -1.4684    0.0000 O   0  0  0  0  0  0  0  0  0  0  0  0
  1  2  2  0
  2  3  1  0
  3  4  1  0
  3  5  1  0
  3  6  1  0
  6  7  1  0
  7  8  1  0
  8  9  2  3
  9 10  1  0
  9 11  1  0
 11 12  2  0
M  END
> <Identifier>
Linalool aldehyde

> <SkinReaction>
1

$$$$

     RDKit          2D

 20 19  0  0  0  0  0  0  0  0999 V2000
  -12.2170   -0.2342    0.0000 C   0  0  0  0  0  0  0  0  0  0  0  0
  -10.9049    0.4927    0.0000 C   0  0  0  0  0  0  0  0  0  0  0  0
   -9.6193   -0.2801    0.0000 C   0  0  0  0  0  0  0  0  0  0  0  0
   -8.3072    0.4468    0.0000 C   0  0  0  0  0  0  0  0  0  0  0  0
   -7.0217   -0.3260    0.0000 C   0  0  0  0  0  0  0  0  0  0  0  0
   -5.7096    0.4009    0.0000 C   0  0  0  0  0  0  0  0  0  0  0  0
   -4.4240   -0.3719    0.0000 C   0  0  0  0  0  0  0  0  0  0  0  0
   -3.1119    0.3550    0.0000 C   0  0  0  0  0  0  0  0  0  0  0  0
   -1.8263   -0.4178    0.0000 C   0  0  0  0  0  0  0  0  0  0  0  0
   -0.5142    0.3091    0.0000 C   0  0  0  0  0  0  0  0  0  0  0  0
    0.7714   -0.4637    0.0000 C   0  0  0  0  0  0  0  0  0  0  0  0
    2.0834    0.2632    0.0000 C   0  0  0  0  0  0  0  0  0  0  0  0
    3.3690   -0.5096    0.0000 C   0  0  0  0  0  0  0  0  0  0  0  0
    4.6811    0.2173    0.0000 C   0  0  0  0  0  0  0  0  0  0  0  0
    5.9667   -0.5555    0.0000 C   0  0  0  0  0  0  0  0  0  0  0  0
    7.2788    0.1714    0.0000 C   0  0  0  0  0  0  0  0  0  0  0  0
    8.5644   -0.6014    0.0000 C   0  0  0  0  0  0  0  0  0  0  0  0
    9.8764    0.1255    0.0000 C   0  0  0  0  0  0  0  0  0  0  0  0
    9.9029    1.6253    0.0000 O   0  0  0  0  0  0  0  0  0  0  0  0
   11.1620   -0.6473    0.0000 O   0  0  0  0  0  0  0  0  0  0  0  0
  1  2  1  0
  2  3  1  0
  3  4  1  0
  4  5  1  0
  5  6  1  0
  6  7  2  3
  7  8  1  0
  8  9  1  0
  9 10  2  3
 10 11  1  0
 11 12  1  0
 12 13  1  0
 13 14  1  0
 14 15  1  0
 15 16  1  0
 16 17  1  0
 17 18  1  0
 18 19  2  0
 18 20  1  0
M  END
> <Identifier>
Linoleic acid

> <SkinReaction>
1

$$$$

     RDKit          2D

 12 11  0  0  0  0  0  0  0  0999 V2000
    6.7790    0.8651    0.0000 C   0  0  0  0  0  0  0  0  0  0  0  0
    5.6459   -0.1178    0.0000 C   0  0  0  0  0  0  0  0  0  0  0  0
    4.2282    0.3719    0.0000 C   0  0  0  0  0  0  0  0  0  0  0  0
    3.0951   -0.6110    0.0000 C   0  0  0  0  0  0  0  0  0  0  0  0
    1.6773   -0.1213    0.0000 C   0  0  0  0  0  0  0  0  0  0  0  0
    0.5443   -1.1043    0.0000 C   0  0  0  0  0  0  0  0  0  0  0  0
   -0.8735   -0.6145    0.0000 C   0  0  0  0  0  0  0  0  0  0  0  0
   -2.2913   -0.1247    0.0000 C   0  0  0  0  0  0  0  0  0  0  0  0
   -3.7091    0.3650    0.0000 C   0  0  0  0  0  0  0  0  0  0  0  0
   -3.9939    1.8377    0.0000 O   0  0  0  0  0  0  0  0  0  0  0  0
   -4.8421   -0.6180    0.0000 O   0  0  0  0  0  0  0  0  0  0  0  0
   -6.2599   -0.1282    0.0000 C   0  0  0  0  0  0  0  0  0  0  0  0
  1  2  1  0
  2  3  1  0
  3  4  1  0
  4  5  1  0
  5  6  1  0
  6  7  1  0
  7  8  3  0
  8  9  1  0
  9 10  2  0
  9 11  1  0
 11 12  1  0
M  END
> <Identifier>
Methyl 2-nonynoate

> <SkinReaction>
1

$$$$

     RDKit          2D

  6  5  0  0  0  0  0  0  0  0999 V2000
   -2.5981    0.0000    0.0000 C   0  0  0  0  0  0  0  0  0  0  0  0
   -1.2990    0.7500    0.0000 C   0  0  0  0  0  0  0  0  0  0  0  0
    0.0000   -0.0000    0.0000 C   0  0  0  0  0  0  0  0  0  0  0  0
    0.0000   -1.5000    0.0000 O   0  0  0  0  0  0  0  0  0  0  0  0
    1.2990    0.7500    0.0000 O   0  0  0  0  0  0  0  0  0  0  0  0
    2.5981   -0.0000    0.0000 C   0  0  0  0  0  0  0  0  0  0  0  0
  1  2  2  0
  2  3  1  0
  3  4  2  0
  3  5  1  0
  5  6  1  0
M  END
> <Identifier>
Methyl acrylate

> <SkinReaction>
1

$$$$

     RDKit          2D

 21 20  0  0  0  0  0  0  0  0999 V2000
   12.4819    0.6011    0.0000 C   0  0  0  0  0  0  0  0  0  0  0  0
   11.2112   -0.1961    0.0000 C   0  0  0  0  0  0  0  0  0  0  0  0
    9.8855    0.5058    0.0000 C   0  0  0  0  0  0  0  0  0  0  0  0
    8.6149   -0.2914    0.0000 C   0  0  0  0  0  0  0  0  0  0  0  0
    7.2892    0.4105    0.0000 C   0  0  0  0  0  0  0  0  0  0  0  0
    6.0185   -0.3867    0.0000 C   0  0  0  0  0  0  0  0  0  0  0  0
    4.6929    0.3152    0.0000 C   0  0  0  0  0  0  0  0  0  0  0  0
    3.4222   -0.4820    0.0000 C   0  0  0  0  0  0  0  0  0  0  0  0
    2.0965    0.2199    0.0000 C   0  0  0  0  0  0  0  0  0  0  0  0
    0.8259   -0.5772    0.0000 C   0  0  0  0  0  0  0  0  0  0  0  0
   -0.4998    0.1246    0.0000 C   0  0  0  0  0  0  0  0  0  0  0  0
   -1.7704   -0.6725    0.0000 C   0  0  0  0  0  0  0  0  0  0  0  0
   -3.0961    0.0293    0.0000 C   0  0  0  0  0  0  0  0  0  0  0  0
   -4.3668   -0.7678    0.0000 C   0  0  0  0  0  0  0  0  0  0  0  0
   -5.6924   -0.0660    0.0000 C   0  0  0  0  0  0  0  0  0  0  0  0
   -6.9631   -0.8631    0.0000 C   0  0  0  0  0  0  0  0  0  0  0  0
   -8.2888   -0.1613    0.0000 S   0  0  0  0  0  0  0  0  0  0  0  0
   -8.9906   -1.4869    0.0000 O   0  0  0  0  0  0  0  0  0  0  0  0
   -7.5869    1.1644    0.0000 O   0  0  0  0  0  0  0  0  0  0  0  0
   -9.6144    0.5406    0.0000 O   0  0  0  0  0  0  0  0  0  0  0  0
   -9.6694    2.0396    0.0000 C   0  0  0  0  0  0  0  0  0  0  0  0
  1  2  1  0
  2  3  1  0
  3  4  1  0
  4  5  1  0
  5  6  1  0
  6  7  1  0
  7  8  1  0
  8  9  1  0
  9 10  1  0
 10 11  1  0
 11 12  1  0
 12 13  1  0
 13 14  1  0
 14 15  1  0
 15 16  2  3
 16 17  1  0
 17 18  2  0
 17 19  2  0
 17 20  1  0
 20 21  1  0
M  END
> <Identifier>
Methyl hexadec-1-ene-1- sulfonate

> <SkinReaction>
1

$$$$

     RDKit          2D

  7  6  0  0  0  0  0  0  0  0999 V2000
   -2.2837    0.8417    0.0000 C   0  0  0  0  0  0  0  0  0  0  0  0
   -1.1803   -0.1745    0.0000 C   0  0  0  0  0  0  0  0  0  0  0  0
   -1.5086   -1.6381    0.0000 C   0  0  0  0  0  0  0  0  0  0  0  0
    0.2514    0.2730    0.0000 C   0  0  0  0  0  0  0  0  0  0  0  0
    0.5797    1.7367    0.0000 O   0  0  0  0  0  0  0  0  0  0  0  0
    1.3548   -0.7431    0.0000 O   0  0  0  0  0  0  0  0  0  0  0  0
    2.7865   -0.2956    0.0000 C   0  0  0  0  0  0  0  0  0  0  0  0
  1  2  2  0
  2  3  1  0
  2  4  1  0
  4  5  2  0
  4  6  1  0
  6  7  1  0
M  END
> <Identifier>
Methyl methacrylate

> <SkinReaction>
1

$$$$

     RDKit          2D

 10 10  0  0  0  0  0  0  0  0999 V2000
   -3.6689   -0.8582    0.0000 C   0  0  0  0  0  0  0  0  0  0  0  0
   -2.2421   -1.3211    0.0000 N   0  0  0  0  0  0  0  0  0  0  0  0
   -1.1279   -0.3169    0.0000 C   0  0  0  0  0  0  0  0  0  0  0  0
   -1.4403    1.1502    0.0000 C   0  0  0  0  0  0  0  0  0  0  0  0
   -0.3261    2.1543    0.0000 C   0  0  0  0  0  0  0  0  0  0  0  0
    1.1007    1.6914    0.0000 C   0  0  0  0  0  0  0  0  0  0  0  0
    1.4132    0.2243    0.0000 C   0  0  0  0  0  0  0  0  0  0  0  0
    2.8400   -0.2386    0.0000 N   0  0  0  0  0  0  0  0  0  0  0  0
    3.1525   -1.7057    0.0000 C   0  0  0  0  0  0  0  0  0  0  0  0
    0.2989   -0.7798    0.0000 C   0  0  0  0  0  0  0  0  0  0  0  0
  1  2  1  0
  2  3  1  0
  3  4  2  0
  4  5  1  0
  5  6  2  0
  6  7  1  0
  7  8  1  0
  8  9  1  0
  7 10  2  0
 10  3  1  0
M  END
> <Identifier>
m-Phenylenebis-(methylamine)

> <SkinReaction>
1

$$$$

     RDKit          2D

 15 15  0  0  0  0  0  0  0  0999 V2000
   -5.9573    0.0220    0.0000 C   0  0  0  0  0  0  0  0  0  0  0  0
   -4.7900   -0.9199    0.0000 O   0  0  0  0  0  0  0  0  0  0  0  0
   -3.3905   -0.3800    0.0000 C   0  0  0  0  0  0  0  0  0  0  0  0
   -3.1584    1.1020    0.0000 C   0  0  0  0  0  0  0  0  0  0  0  0
   -1.7590    1.6419    0.0000 C   0  0  0  0  0  0  0  0  0  0  0  0
   -0.5916    0.7000    0.0000 C   0  0  0  0  0  0  0  0  0  0  0  0
    0.8078    1.2399    0.0000 N   0  0  0  0  0  0  0  0  0  0  0  0
    1.9751    0.2980    0.0000 C   0  0  0  0  0  0  0  0  0  0  0  0
    1.7431   -1.1840    0.0000 O   0  0  0  0  0  0  0  0  0  0  0  0
    3.3746    0.8379    0.0000 C   0  0  0  0  0  0  0  0  0  0  0  0
    4.5419   -0.1040    0.0000 C   0  0  0  0  0  0  0  0  0  0  0  0
    5.9414    0.4359    0.0000 C   0  0  0  0  0  0  0  0  0  0  0  0
    4.3098   -1.5860    0.0000 O   0  0  0  0  0  0  0  0  0  0  0  0
   -0.8237   -0.7820    0.0000 C   0  0  0  0  0  0  0  0  0  0  0  0
   -2.2232   -1.3219    0.0000 C   0  0  0  0  0  0  0  0  0  0  0  0
  1  2  1  0
  2  3  1  0
  3  4  2  0
  4  5  1  0
  5  6  2  0
  6  7  1  0
  7  8  1  0
  8  9  2  0
  8 10  1  0
 10 11  1  0
 11 12  1  0
 11 13  2  0
  6 14  1  0
 14 15  2  0
 15  3  1  0
M  END
> <Identifier>
N-(4-Methoxyphenyl)-3-oxobutanamide

> <SkinReaction>
1

$$$$

     RDKit          2D

 11 10  0  0  0  0  0  0  0  0999 V2000
    6.2482    0.4209    0.0000 C   0  0  0  0  0  0  0  0  0  0  0  0
    4.9759   -0.3736    0.0000 C   0  0  0  0  0  0  0  0  0  0  0  0
    3.6517    0.3310    0.0000 C   0  0  0  0  0  0  0  0  0  0  0  0
    2.3793   -0.4635    0.0000 C   0  0  0  0  0  0  0  0  0  0  0  0
    1.0551    0.2412    0.0000 C   0  0  0  0  0  0  0  0  0  0  0  0
   -0.2172   -0.5533    0.0000 C   0  0  0  0  0  0  0  0  0  0  0  0
   -1.5414    0.1513    0.0000 C   0  0  0  0  0  0  0  0  0  0  0  0
   -2.8137   -0.6431    0.0000 C   0  0  0  0  0  0  0  0  0  0  0  0
   -4.1379    0.0615    0.0000 C   0  0  0  0  0  0  0  0  0  0  0  0
   -5.4102   -0.7330    0.0000 O   0  0  0  0  0  0  0  0  0  0  0  0
   -4.1898    1.5606    0.0000 Cl  0  0  0  0  0  0  0  0  0  0  0  0
  1  2  1  0
  2  3  1  0
  3  4  1  0
  4  5  1  0
  5  6  1  0
  6  7  1  0
  7  8  1  0
  8  9  1  0
  9 10  2  0
  9 11  1  0
M  END
> <Identifier>
Nonanoyl chloride

> <SkinReaction>
1

$$$$

     RDKit          2D

  9 10  0  0  0  0  0  0  0  0999 V2000
    3.0635   -0.8048    0.0000 F   0  0  0  0  0  0  0  0  0  0  0  0
    2.2183    0.4344    0.0000 O   0  0  0  0  0  0  0  0  0  0  0  0
    0.7225    0.3220    0.0000 C   0  0  0  0  0  0  0  0  0  0  0  0
   -0.0658   -0.9541    0.0000 C   0  0  0  0  0  0  0  0  0  0  0  0
   -1.4536   -1.5232    0.0000 C   0  0  0  0  0  0  0  0  0  0  0  0
   -2.4237   -0.3791    0.0000 C   0  0  0  0  0  0  0  0  0  0  0  0
   -1.6354    0.8970    0.0000 C   0  0  0  0  0  0  0  0  0  0  0  0
   -0.1781    0.5417    0.0000 C   0  0  0  0  0  0  0  0  0  0  0  0
   -0.2476    1.4661    0.0000 C   0  0  0  0  0  0  0  0  0  0  0  0
  1  2  1  0
  2  3  1  0
  3  4  2  0
  4  5  1  0
  5  6  1  0
  6  7  1  0
  7  8  1  0
  7  9  1  0
  9  3  1  0
  8  4  1  0
M  END
> <Identifier>
Norbornene fluoroalcohol

> <SkinReaction>
1

$$$$

     RDKit          2D

  9  8  0  0  0  0  0  0  0  0999 V2000
   -5.1962   -0.3333    0.0000 C   0  0  0  0  0  0  0  0  0  0  0  0
   -3.8971    0.4167    0.0000 C   0  0  0  0  0  0  0  0  0  0  0  0
   -2.5981   -0.3333    0.0000 C   0  0  0  0  0  0  0  0  0  0  0  0
   -1.2990    0.4167    0.0000 C   0  0  0  0  0  0  0  0  0  0  0  0
    0.0000   -0.3333    0.0000 C   0  0  0  0  0  0  0  0  0  0  0  0
    1.2990    0.4167    0.0000 C   0  0  0  0  0  0  0  0  0  0  0  0
    2.5981   -0.3333    0.0000 C   0  0  0  0  0  0  0  0  0  0  0  0
    3.8971    0.4167    0.0000 C   0  0  0  0  0  0  0  0  0  0  0  0
    5.1962   -0.3333    0.0000 O   0  0  0  0  0  0  0  0  0  0  0  0
  1  2  1  0
  2  3  1  0
  3  4  1  0
  4  5  1  0
  5  6  1  0
  6  7  1  0
  7  8  1  0
  8  9  1  0
M  END
> <Identifier>
Octanol

> <SkinReaction>
1

$$$$

     RDKit          2D

 20 19  0  0  0  0  0  0  0  0999 V2000
  -12.2170   -0.2342    0.0000 C   0  0  0  0  0  0  0  0  0  0  0  0
  -10.9049    0.4927    0.0000 C   0  0  0  0  0  0  0  0  0  0  0  0
   -9.6193   -0.2801    0.0000 C   0  0  0  0  0  0  0  0  0  0  0  0
   -8.3072    0.4468    0.0000 C   0  0  0  0  0  0  0  0  0  0  0  0
   -7.0217   -0.3260    0.0000 C   0  0  0  0  0  0  0  0  0  0  0  0
   -5.7096    0.4009    0.0000 C   0  0  0  0  0  0  0  0  0  0  0  0
   -4.4240   -0.3719    0.0000 C   0  0  0  0  0  0  0  0  0  0  0  0
   -3.1119    0.3550    0.0000 C   0  0  0  0  0  0  0  0  0  0  0  0
   -1.8263   -0.4178    0.0000 C   0  0  0  0  0  0  0  0  0  0  0  0
   -0.5142    0.3091    0.0000 C   0  0  0  0  0  0  0  0  0  0  0  0
    0.7714   -0.4637    0.0000 C   0  0  0  0  0  0  0  0  0  0  0  0
    2.0834    0.2632    0.0000 C   0  0  0  0  0  0  0  0  0  0  0  0
    3.3690   -0.5096    0.0000 C   0  0  0  0  0  0  0  0  0  0  0  0
    4.6811    0.2173    0.0000 C   0  0  0  0  0  0  0  0  0  0  0  0
    5.9667   -0.5555    0.0000 C   0  0  0  0  0  0  0  0  0  0  0  0
    7.2788    0.1714    0.0000 C   0  0  0  0  0  0  0  0  0  0  0  0
    8.5644   -0.6014    0.0000 C   0  0  0  0  0  0  0  0  0  0  0  0
    9.8764    0.1255    0.0000 C   0  0  0  0  0  0  0  0  0  0  0  0
    9.9029    1.6253    0.0000 O   0  0  0  0  0  0  0  0  0  0  0  0
   11.1620   -0.6473    0.0000 O   0  0  0  0  0  0  0  0  0  0  0  0
  1  2  1  0
  2  3  1  0
  3  4  1  0
  4  5  1  0
  5  6  1  0
  6  7  1  0
  7  8  1  0
  8  9  1  0
  9 10  2  3
 10 11  1  0
 11 12  1  0
 12 13  1  0
 13 14  1  0
 14 15  1  0
 15 16  1  0
 16 17  1  0
 17 18  1  0
 18 19  2  0
 18 20  1  0
M  END
> <Identifier>
Oleic acid

> <SkinReaction>
1

$$$$

     RDKit          2D

 16 17  0  0  0  0  0  0  0  0999 V2000
   -6.6836   -0.2164    0.0000 C   0  0  0  0  0  0  0  0  0  0  0  0
   -5.3979   -0.9890    0.0000 C   0  0  0  0  0  0  0  0  0  0  0  0
   -4.0859   -0.2619    0.0000 O   0  0  0  0  0  0  0  0  0  0  0  0
   -2.8002   -1.0344    0.0000 C   0  0  0  0  0  0  0  0  0  0  0  0
   -1.4882   -0.3073    0.0000 C   0  0  0  0  0  0  0  0  0  0  0  0
   -0.1288   -0.9412    0.0000 N   0  0  0  0  0  0  0  0  0  0  0  0
    0.8942    0.1558    0.0000 C   0  0  0  0  0  0  0  0  0  0  0  0
    2.3830   -0.0271    0.0000 C   0  0  0  0  0  0  0  0  0  0  0  0
    2.9691   -1.4078    0.0000 C   0  0  0  0  0  0  0  0  0  0  0  0
    4.4579   -1.5907    0.0000 C   0  0  0  0  0  0  0  0  0  0  0  0
    5.3607   -0.3927    0.0000 C   0  0  0  0  0  0  0  0  0  0  0  0
    4.7746    0.9880    0.0000 C   0  0  0  0  0  0  0  0  0  0  0  0
    3.2858    1.1709    0.0000 C   0  0  0  0  0  0  0  0  0  0  0  0
    0.1670    1.4677    0.0000 O   0  0  0  0  0  0  0  0  0  0  0  0
   -1.3054    1.1816    0.0000 C   0  0  0  0  0  0  0  0  0  0  0  0
   -2.4024    2.2046    0.0000 O   0  0  0  0  0  0  0  0  0  0  0  0
  1  2  1  0
  2  3  1  0
  3  4  1  0
  4  5  2  3
  5  6  1  0
  6  7  2  0
  7  8  1  0
  8  9  2  0
  9 10  1  0
 10 11  2  0
 11 12  1  0
 12 13  2  0
  7 14  1  0
 14 15  1  0
 15 16  2  0
 15  5  1  0
 13  8  1  0
M  END
> <Identifier>
(4E)-4-(Ethoxymethylene)-2-phenyl-1,3-oxazol-5(4H)-one

> <SkinReaction>
1

$$$$

     RDKit          2D

 18 17  0  0  0  0  0  0  0  0999 V2000
  -10.9048   -0.2250    0.0000 C   0  0  0  0  0  0  0  0  0  0  0  0
   -9.5900    0.4970    0.0000 C   0  0  0  0  0  0  0  0  0  0  0  0
   -8.3073   -0.2806    0.0000 C   0  0  0  0  0  0  0  0  0  0  0  0
   -6.9925    0.4414    0.0000 C   0  0  0  0  0  0  0  0  0  0  0  0
   -5.7098   -0.3362    0.0000 C   0  0  0  0  0  0  0  0  0  0  0  0
   -4.3950    0.3858    0.0000 C   0  0  0  0  0  0  0  0  0  0  0  0
   -3.1124   -0.3918    0.0000 C   0  0  0  0  0  0  0  0  0  0  0  0
   -1.7976    0.3302    0.0000 C   0  0  0  0  0  0  0  0  0  0  0  0
   -0.5149   -0.4474    0.0000 C   0  0  0  0  0  0  0  0  0  0  0  0
    0.7999    0.2746    0.0000 C   0  0  0  0  0  0  0  0  0  0  0  0
    2.0826   -0.5030    0.0000 C   0  0  0  0  0  0  0  0  0  0  0  0
    3.3974    0.2190    0.0000 C   0  0  0  0  0  0  0  0  0  0  0  0
    4.6801   -0.5586    0.0000 C   0  0  0  0  0  0  0  0  0  0  0  0
    5.9949    0.1634    0.0000 C   0  0  0  0  0  0  0  0  0  0  0  0
    7.2776   -0.6142    0.0000 C   0  0  0  0  0  0  0  0  0  0  0  0
    8.5924    0.1078    0.0000 C   0  0  0  0  0  0  0  0  0  0  0  0
    9.8751   -0.6698    0.0000 O   0  0  0  0  0  0  0  0  0  0  0  0
    8.6245    1.6075    0.0000 Cl  0  0  0  0  0  0  0  0  0  0  0  0
  1  2  1  0
  2  3  1  0
  3  4  1  0
  4  5  1  0
  5  6  1  0
  6  7  1  0
  7  8  1  0
  8  9  1  0
  9 10  1  0
 10 11  1  0
 11 12  1  0
 12 13  1  0
 13 14  1  0
 14 15  1  0
 15 16  1  0
 16 17  2  0
 16 18  1  0
M  END
> <Identifier>
Palmitoyl chloride

> <SkinReaction>
1

$$$$

     RDKit          2D

 15 16  0  0  0  0  0  0  0  0999 V2000
   -0.0075    1.8520    0.0000 O   0  0  0  0  0  0  0  0  0  0  0  0
   -0.4927    0.4327    0.0000 C   0  0  0  0  0  0  0  0  0  0  0  0
    0.4938   -0.6972    0.0000 O   0  0  0  0  0  0  0  0  0  0  0  0
    1.9656   -0.4078    0.0000 C   0  0  0  0  0  0  0  0  0  0  0  0
    2.9522   -1.5377    0.0000 C   0  0  0  0  0  0  0  0  0  0  0  0
    4.4240   -1.2483    0.0000 C   0  0  0  0  0  0  0  0  0  0  0  0
    4.9093    0.1710    0.0000 C   0  0  0  0  0  0  0  0  0  0  0  0
    3.9227    1.3009    0.0000 C   0  0  0  0  0  0  0  0  0  0  0  0
    2.4509    1.0115    0.0000 C   0  0  0  0  0  0  0  0  0  0  0  0
   -1.9646    0.1433    0.0000 C   0  0  0  0  0  0  0  0  0  0  0  0
   -2.9511    1.2732    0.0000 C   0  0  0  0  0  0  0  0  0  0  0  0
   -4.4229    0.9838    0.0000 C   0  0  0  0  0  0  0  0  0  0  0  0
   -4.9082   -0.4356    0.0000 C   0  0  0  0  0  0  0  0  0  0  0  0
   -3.9216   -1.5655    0.0000 C   0  0  0  0  0  0  0  0  0  0  0  0
   -2.4498   -1.2761    0.0000 C   0  0  0  0  0  0  0  0  0  0  0  0
  1  2  2  0
  2  3  1  0
  3  4  1  0
  4  5  2  0
  5  6  1  0
  6  7  2  0
  7  8  1  0
  8  9  2  0
  2 10  1  0
 10 11  2  0
 11 12  1  0
 12 13  2  0
 13 14  1  0
 14 15  2  0
  9  4  1  0
 15 10  1  0
M  END
> <Identifier>
Phenyl benzoate

> <SkinReaction>
1

$$$$

     RDKit          2D

  8  8  0  0  0  0  0  0  0  0999 V2000
   -2.5981   -1.1250    0.0000 O   0  0  0  0  0  0  0  0  0  0  0  0
   -1.2990   -0.3750    0.0000 C   0  0  0  0  0  0  0  0  0  0  0  0
   -1.2990    1.1250    0.0000 C   0  0  0  0  0  0  0  0  0  0  0  0
    0.0000    1.8750    0.0000 C   0  0  0  0  0  0  0  0  0  0  0  0
    1.2990    1.1250    0.0000 C   0  0  0  0  0  0  0  0  0  0  0  0
    1.2990   -0.3750    0.0000 C   0  0  0  0  0  0  0  0  0  0  0  0
    2.5981   -1.1250    0.0000 O   0  0  0  0  0  0  0  0  0  0  0  0
   -0.0000   -1.1250    0.0000 C   0  0  0  0  0  0  0  0  0  0  0  0
  1  2  1  0
  2  3  2  0
  3  4  1  0
  4  5  2  0
  5  6  1  0
  6  7  1  0
  6  8  2  0
  8  2  1  0
M  END
> <Identifier>
Resorcinol

> <SkinReaction>
1

$$$$

     RDKit          2D

 11 10  0  0  0  0  0  0  0  0999 V2000
    2.5518    1.8837    0.0000 C   0  0  0  0  0  0  0  0  0  0  0  0
    1.4911    0.8231    0.0000 C   0  0  0  0  0  0  0  0  0  0  0  0
    0.0422    1.2113    0.0000 C   0  0  0  0  0  0  0  0  0  0  0  0
   -1.0184    0.1506    0.0000 C   0  0  0  0  0  0  0  0  0  0  0  0
   -2.4673    0.5389    0.0000 C   0  0  0  0  0  0  0  0  0  0  0  0
   -3.5280   -0.5218    0.0000 C   0  0  0  0  0  0  0  0  0  0  0  0
   -4.9769   -0.1336    0.0000 N   0  0  0  0  0  0  0  0  0  0  0  0
    1.8793   -0.6258    0.0000 C   0  0  0  0  0  0  0  0  0  0  0  0
    3.3282   -0.2376    0.0000 C   0  0  0  0  0  0  0  0  0  0  0  0
    0.4304   -1.0141    0.0000 C   0  0  0  0  0  0  0  0  0  0  0  0
    2.2676   -2.0747    0.0000 N   0  0  0  0  0  0  0  0  0  0  0  0
  1  2  1  0
  2  3  1  0
  3  4  1  0
  4  5  1  0
  5  6  1  0
  6  7  1  0
  2  8  1  0
  8  9  1  0
  8 10  1  0
  8 11  1  0
M  END
> <Identifier>
Trimethylhexamine diamine

> <SkinReaction>
1

$$$$

     RDKit          2D

 13 12  0  0  0  0  0  0  0  0999 V2000
    7.5855    0.4344    0.0000 C   0  0  0  0  0  0  0  0  0  0  0  0
    6.3070   -0.3502    0.0000 C   0  0  0  0  0  0  0  0  0  0  0  0
    4.9883    0.3647    0.0000 C   0  0  0  0  0  0  0  0  0  0  0  0
    3.7099   -0.4199    0.0000 C   0  0  0  0  0  0  0  0  0  0  0  0
    2.3912    0.2950    0.0000 C   0  0  0  0  0  0  0  0  0  0  0  0
    1.1127   -0.4896    0.0000 C   0  0  0  0  0  0  0  0  0  0  0  0
   -0.2060    0.2253    0.0000 C   0  0  0  0  0  0  0  0  0  0  0  0
   -1.4844   -0.5593    0.0000 C   0  0  0  0  0  0  0  0  0  0  0  0
   -2.8031    0.1556    0.0000 C   0  0  0  0  0  0  0  0  0  0  0  0
   -4.0816   -0.6289    0.0000 C   0  0  0  0  0  0  0  0  0  0  0  0
   -5.4003    0.0859    0.0000 C   0  0  0  0  0  0  0  0  0  0  0  0
   -5.4405    1.5854    0.0000 O   0  0  0  0  0  0  0  0  0  0  0  0
   -6.6787   -0.6986    0.0000 O   0  0  0  0  0  0  0  0  0  0  0  0
  1  2  2  0
  2  3  1  0
  3  4  1  0
  4  5  1  0
  5  6  1  0
  6  7  1  0
  7  8  1  0
  8  9  1  0
  9 10  1  0
 10 11  1  0
 11 12  2  0
 11 13  1  0
M  END
> <Identifier>
Undecylenic acid

> <SkinReaction>
1

$$$$

     RDKit          2D

 12 12  0  0  0  0  0  0  0  0999 V2000
   -3.7979    1.2862    0.0000 C   0  0  0  0  0  0  0  0  0  0  0  0
   -2.8618    0.1141    0.0000 O   0  0  0  0  0  0  0  0  0  0  0  0
   -1.3787    0.3387    0.0000 C   0  0  0  0  0  0  0  0  0  0  0  0
   -0.8317    1.7353    0.0000 C   0  0  0  0  0  0  0  0  0  0  0  0
    0.6514    1.9599    0.0000 C   0  0  0  0  0  0  0  0  0  0  0  0
    1.5874    0.7878    0.0000 C   0  0  0  0  0  0  0  0  0  0  0  0
    3.0705    1.0124    0.0000 C   0  0  0  0  0  0  0  0  0  0  0  0
    4.0066   -0.1597    0.0000 O   0  0  0  0  0  0  0  0  0  0  0  0
    1.0404   -0.6089    0.0000 C   0  0  0  0  0  0  0  0  0  0  0  0
   -0.4427   -0.8334    0.0000 C   0  0  0  0  0  0  0  0  0  0  0  0
   -0.9898   -2.2301    0.0000 O   0  0  0  0  0  0  0  0  0  0  0  0
   -0.0537   -3.4022    0.0000 C   0  0  0  0  0  0  0  0  0  0  0  0
  1  2  1  0
  2  3  1  0
  3  4  2  0
  4  5  1  0
  5  6  2  0
  6  7  1  0
  7  8  2  0
  6  9  1  0
  9 10  2  0
 10 11  1  0
 11 12  1  0
 10  3  1  0
M  END
> <Identifier>
Veratraldehyde

> <SkinReaction>
1

$$$$

     RDKit          2D

 18 18  0  0  0  0  0  0  0  0999 V2000
   -0.2384   -2.7396    0.0000 O   0  0  0  0  0  0  0  0  0  0  0  0
   -0.1084   -1.2453    0.0000 C   0  0  0  0  0  0  0  0  0  0  0  0
   -1.3375   -0.3855    0.0000 C   0  0  0  0  0  0  0  0  0  0  0  0
   -2.6967   -1.0200    0.0000 C   0  0  0  0  0  0  0  0  0  0  0  0
   -3.9258   -0.1602    0.0000 C   0  0  0  0  0  0  0  0  0  0  0  0
   -5.2850   -0.7948    0.0000 O   0  0  0  0  0  0  0  0  0  0  0  0
   -3.7957    1.3341    0.0000 C   0  0  0  0  0  0  0  0  0  0  0  0
   -2.4366    1.9687    0.0000 C   0  0  0  0  0  0  0  0  0  0  0  0
   -1.2074    1.1089    0.0000 C   0  0  0  0  0  0  0  0  0  0  0  0
    0.1517    1.7434    0.0000 C   0  0  0  0  0  0  0  0  0  0  0  0
    1.3809    0.8836    0.0000 C   0  0  0  0  0  0  0  0  0  0  0  0
    1.2508   -0.6108    0.0000 C   0  0  0  0  0  0  0  0  0  0  0  0
    2.4799   -1.4706    0.0000 C   0  0  0  0  0  0  0  0  0  0  0  0
    3.8391   -0.8360    0.0000 O   0  0  0  0  0  0  0  0  0  0  0  0
    2.3498   -2.9649    0.0000 O   0  0  0  0  0  0  0  0  0  0  0  0
    2.7400    1.5181    0.0000 C   0  0  0  0  0  0  0  0  0  0  0  0
    2.8701    3.0125    0.0000 O   0  0  0  0  0  0  0  0  0  0  0  0
    3.9691    0.6583    0.0000 O   0  0  0  0  0  0  0  0  0  0  0  0
  1  2  2  0
  2  3  1  0
  3  4  2  0
  4  5  1  0
  5  6  1  0
  5  7  2  0
  7  8  1  0
  8  9  2  0
  9 10  1  0
 10 11  2  3
 11 12  1  0
 12 13  1  0
 13 14  2  0
 13 15  1  0
 11 16  1  0
 16 17  2  0
 16 18  1  0
  9  3  1  0
M  END
> <Identifier>
(2E)-2-[(2-Formyl- 4-hydroxyphenyl)- methylidene]-butanedioic acid

> <SkinReaction>
1

$$$$

     RDKit          2D

  7  6  0  0  0  0  0  0  0  0999 V2000
   -3.8971   -0.3214    0.0000 C   0  0  0  0  0  0  0  0  0  0  0  0
   -2.5981    0.4286    0.0000 C   0  0  0  0  0  0  0  0  0  0  0  0
   -1.2990   -0.3214    0.0000 C   0  0  0  0  0  0  0  0  0  0  0  0
    0.0000    0.4286    0.0000 C   0  0  0  0  0  0  0  0  0  0  0  0
    1.2990   -0.3214    0.0000 C   0  0  0  0  0  0  0  0  0  0  0  0
    2.5981    0.4286    0.0000 C   0  0  0  0  0  0  0  0  0  0  0  0
    3.8971   -0.3214    0.0000 O   0  0  0  0  0  0  0  0  0  0  0  0
  1  2  1  0
  2  3  2  3
  3  4  1  0
  4  5  2  3
  5  6  1  0
  6  7  2  0
M  END
> <Identifier>
(2E,4E)-2,4-Hexadienal

> <SkinReaction>
1

$$$$

     RDKit          2D

 10 11  0  0  0  0  0  0  0  0999 V2000
   -0.7825   -0.2234    0.0000 C   0  0  0  0  0  0  0  0  0  0  0  0
   -0.0130   -0.0152    0.0000 N   0  0  0  0  0  0  0  0  0  0  0  0
    0.8926   -1.2110    0.0000 C   0  0  0  0  0  0  0  0  0  0  0  0
    2.3097   -0.7192    0.0000 C   0  0  0  0  0  0  0  0  0  0  0  0
    2.2799    0.7805    0.0000 C   0  0  0  0  0  0  0  0  0  0  0  0
    0.8444    1.2156    0.0000 C   0  0  0  0  0  0  0  0  0  0  0  0
   -0.6587    1.3568    0.0000 C   0  0  0  0  0  0  0  0  0  0  0  0
   -1.3828    0.0432    0.0000 C   0  0  0  0  0  0  0  0  0  0  0  0
   -2.8825    0.0134    0.0000 O   0  0  0  0  0  0  0  0  0  0  0  0
   -0.6071   -1.2407    0.0000 C   0  0  0  0  0  0  0  0  0  0  0  0
  1  2  1  0
  2  3  1  0
  3  4  1  0
  4  5  1  0
  5  6  1  0
  6  7  1  0
  7  8  1  0
  8  9  1  0
  8 10  1  0
  6  2  1  0
 10  3  1  0
M  END
> <Identifier>
(3-Endo)-8-methyl- 8-azabicyclo[3,2,1]- octan-3-ol

> <SkinReaction>
1

$$$$

     RDKit          2D

 16 16  0  0  0  0  0  0  0  0999 V2000
   -4.9291    1.6469    0.0000 C   0  0  0  0  0  0  0  0  0  0  0  0
   -3.9551    0.5062    0.0000 C   0  0  0  0  0  0  0  0  0  0  0  0
   -4.4561   -0.9077    0.0000 O   0  0  0  0  0  0  0  0  0  0  0  0
   -2.4802    0.7793    0.0000 C   0  0  0  0  0  0  0  0  0  0  0  0
   -1.5062   -0.3615    0.0000 C   0  0  0  0  0  0  0  0  0  0  0  0
   -2.0072   -1.7754    0.0000 O   0  0  0  0  0  0  0  0  0  0  0  0
   -0.0313   -0.0884    0.0000 C   0  0  0  0  0  0  0  0  0  0  0  0
    0.4696    1.3255    0.0000 C   0  0  0  0  0  0  0  0  0  0  0  0
    1.9446    1.5986    0.0000 C   0  0  0  0  0  0  0  0  0  0  0  0
    2.4455    3.0125    0.0000 C   0  0  0  0  0  0  0  0  0  0  0  0
    2.9185    0.4579    0.0000 C   0  0  0  0  0  0  0  0  0  0  0  0
    4.3935    0.7310    0.0000 C   0  0  0  0  0  0  0  0  0  0  0  0
    2.4176   -0.9560    0.0000 C   0  0  0  0  0  0  0  0  0  0  0  0
    3.3916   -2.0968    0.0000 C   0  0  0  0  0  0  0  0  0  0  0  0
    0.9427   -1.2291    0.0000 C   0  0  0  0  0  0  0  0  0  0  0  0
    0.4417   -2.6430    0.0000 C   0  0  0  0  0  0  0  0  0  0  0  0
  1  2  1  0
  2  3  2  0
  2  4  1  0
  4  5  1  0
  5  6  2  0
  5  7  1  0
  7  8  2  0
  8  9  1  0
  9 10  1  0
  9 11  2  0
 11 12  1  0
 11 13  1  0
 13 14  1  0
 13 15  2  0
 15 16  1  0
 15  7  1  0
M  END
> <Identifier>
1-(2',3',4',5'-Tetramethylphenyl)butane-1,3-dione

> <SkinReaction>
1

$$$$

     RDKit          2D

 14 14  0  0  0  0  0  0  0  0999 V2000
   -6.0860    0.6107    0.0000 C   0  0  0  0  0  0  0  0  0  0  0  0
   -4.6350    0.9911    0.0000 C   0  0  0  0  0  0  0  0  0  0  0  0
   -3.5801   -0.0753    0.0000 C   0  0  0  0  0  0  0  0  0  0  0  0
   -3.9761   -1.5220    0.0000 O   0  0  0  0  0  0  0  0  0  0  0  0
   -2.1291    0.3051    0.0000 C   0  0  0  0  0  0  0  0  0  0  0  0
   -1.0742   -0.7612    0.0000 C   0  0  0  0  0  0  0  0  0  0  0  0
    0.3768   -0.3808    0.0000 C   0  0  0  0  0  0  0  0  0  0  0  0
    0.7728    1.0659    0.0000 C   0  0  0  0  0  0  0  0  0  0  0  0
    2.2238    1.4463    0.0000 C   0  0  0  0  0  0  0  0  0  0  0  0
    3.2787    0.3800    0.0000 C   0  0  0  0  0  0  0  0  0  0  0  0
    4.7296    0.7603    0.0000 O   0  0  0  0  0  0  0  0  0  0  0  0
    5.7846   -0.3060    0.0000 C   0  0  0  0  0  0  0  0  0  0  0  0
    2.8826   -1.0668    0.0000 C   0  0  0  0  0  0  0  0  0  0  0  0
    1.4317   -1.4472    0.0000 C   0  0  0  0  0  0  0  0  0  0  0  0
  1  2  1  0
  2  3  1  0
  3  4  2  0
  3  5  1  0
  5  6  2  3
  6  7  1  0
  7  8  2  0
  8  9  1  0
  9 10  2  0
 10 11  1  0
 11 12  1  0
 10 13  1  0
 13 14  2  0
 14  7  1  0
M  END
> <Identifier>
1-(p-methoxyphenyl)-1- penten-3-one

> <SkinReaction>
1

$$$$

     RDKit          2D

 49 53  0  0  0  0  0  0  0  0999 V2000
    4.3169    6.6076    0.0000 C   0  0  0  0  0  0  0  0  0  0  0  0
    4.4950    5.1182    0.0000 C   0  0  0  0  0  0  0  0  0  0  0  0
    5.8739    4.5277    0.0000 C   0  0  0  0  0  0  0  0  0  0  0  0
    3.2942    4.2192    0.0000 N   0  0  0  0  0  0  0  0  0  0  0  0
    3.4723    2.7298    0.0000 C   0  0  0  0  0  0  0  0  0  0  0  0
    4.8512    2.1394    0.0000 O   0  0  0  0  0  0  0  0  0  0  0  0
    2.2715    1.8309    0.0000 C   0  0  0  0  0  0  0  0  0  0  0  0
    2.4496    0.3415    0.0000 N   0  0  0  0  0  0  0  0  0  0  0  0
    1.1850   -0.4652    0.0000 C   0  0  0  0  0  0  0  0  0  0  0  0
   -0.0905    0.3242    0.0000 O   0  0  0  0  0  0  0  0  0  0  0  0
    1.0272   -1.9569    0.0000 C   0  0  0  0  0  0  0  0  0  0  0  0
   -0.3852   -2.4619    0.0000 N   0  0  0  0  0  0  0  0  0  0  0  0
   -1.5288   -1.4913    0.0000 C   0  0  0  0  0  0  0  0  0  0  0  0
   -1.2600   -0.0155    0.0000 O   0  0  0  0  0  0  0  0  0  0  0  0
   -2.9412   -1.9963    0.0000 N   0  0  0  0  0  0  0  0  0  0  0  0
   -4.0848   -1.0257    0.0000 C   0  0  0  0  0  0  0  0  0  0  0  0
   -3.8160    0.4500    0.0000 C   0  0  0  0  0  0  0  0  0  0  0  0
   -4.9596    1.4207    0.0000 C   0  0  0  0  0  0  0  0  0  0  0  0
   -6.3720    0.9156    0.0000 C   0  0  0  0  0  0  0  0  0  0  0  0
   -6.6408   -0.5601    0.0000 C   0  0  0  0  0  0  0  0  0  0  0  0
   -8.0533   -1.0651    0.0000 C   0  0  0  0  0  0  0  0  0  0  0  0
   -8.3221   -2.5409    0.0000 O   0  0  0  0  0  0  0  0  0  0  0  0
   -9.1969   -0.0945    0.0000 O   0  0  0  0  0  0  0  0  0  0  0  0
  -10.6093   -0.5996    0.0000 C   0  0  0  0  0  0  0  0  0  0  0  0
  -11.1143    0.8129    0.0000 C   0  0  0  0  0  0  0  0  0  0  0  0
  -10.1042   -2.0120    0.0000 C   0  0  0  0  0  0  0  0  0  0  0  0
  -12.0217   -1.1046    0.0000 C   0  0  0  0  0  0  0  0  0  0  0  0
   -5.4972   -1.5307    0.0000 C   0  0  0  0  0  0  0  0  0  0  0  0
    2.0951   -3.0103    0.0000 C   0  0  0  0  0  0  0  0  0  0  0  0
    1.6093   -4.4294    0.0000 O   0  0  0  0  0  0  0  0  0  0  0  0
    3.5845   -2.8321    0.0000 N   0  0  0  0  0  0  0  0  0  0  0  0
    4.3912   -4.0968    0.0000 C   0  0  0  0  0  0  0  0  0  0  0  0
    3.6993   -5.4277    0.0000 C   0  0  0  0  0  0  0  0  0  0  0  0
    4.5060   -6.6923    0.0000 C   0  0  0  0  0  0  0  0  0  0  0  0
    6.0045   -6.6260    0.0000 C   0  0  0  0  0  0  0  0  0  0  0  0
    6.6964   -5.2951    0.0000 C   0  0  0  0  0  0  0  0  0  0  0  0
    5.8897   -4.0305    0.0000 C   0  0  0  0  0  0  0  0  0  0  0  0
    4.3738   -1.5566    0.0000 C   0  0  0  0  0  0  0  0  0  0  0  0
    5.8496   -1.8255    0.0000 C   0  0  0  0  0  0  0  0  0  0  0  0
    6.8202   -0.6819    0.0000 C   0  0  0  0  0  0  0  0  0  0  0  0
    6.3151    0.7306    0.0000 C   0  0  0  0  0  0  0  0  0  0  0  0
    4.8394    0.9994    0.0000 C   0  0  0  0  0  0  0  0  0  0  0  0
    3.8688   -0.1442    0.0000 C   0  0  0  0  0  0  0  0  0  0  0  0
    1.9153    4.8097    0.0000 C   0  0  0  0  0  0  0  0  0  0  0  0
    1.7372    6.2991    0.0000 C   0  0  0  0  0  0  0  0  0  0  0  0
    0.3583    6.8895    0.0000 C   0  0  0  0  0  0  0  0  0  0  0  0
   -0.8425    5.9906    0.0000 C   0  0  0  0  0  0  0  0  0  0  0  0
   -0.6644    4.5012    0.0000 C   0  0  0  0  0  0  0  0  0  0  0  0
    0.7145    3.9107    0.0000 C   0  0  0  0  0  0  0  0  0  0  0  0
  1  2  1  0
  2  3  1  0
  2  4  1  0
  4  5  1  0
  5  6  2  0
  5  7  1  0
  7  8  1  0
  8  9  1  0
  9 10  2  0
  9 11  1  0
 11 12  1  0
 12 13  1  0
 13 14  2  0
 13 15  1  0
 15 16  1  0
 16 17  2  0
 17 18  1  0
 18 19  2  0
 19 20  1  0
 20 21  1  0
 21 22  2  0
 21 23  1  0
 23 24  1  0
 24 25  1  0
 24 26  1  0
 24 27  1  0
 20 28  2  0
 11 29  1  0
 29 30  2  0
 29 31  1  0
 31 32  1  0
 32 33  2  0
 33 34  1  0
 34 35  2  0
 35 36  1  0
 36 37  2  0
 31 38  1  0
 38 39  2  0
 39 40  1  0
 40 41  2  0
 41 42  1  0
 42 43  2  0
  4 44  1  0
 44 45  2  0
 45 46  1  0
 46 47  2  0
 47 48  1  0
 48 49  2  0
 43  8  1  0
 49 44  1  0
 28 16  1  0
 37 32  1  0
 43 38  1  0
M  END
> <Identifier>
1,1-Dimethylethyl3-[[[[(3s)-2,3,4,5-tetrahydro-1-[2-[(1-methylethyl)pheny lamino]-2-oxoethyl]-2,4-dioxo-5-phenyl-1h-1,5-benzodiazepin-3-yl]amino]carbonyl]amino]benzoate

> <SkinReaction>
1

$$$$

     RDKit          2D

  8  8  0  0  0  0  0  0  0  0999 V2000
    1.9486   -1.5000    0.0000 N   0  0  0  0  0  0  0  0  0  0  0  0
    0.6495   -0.7500    0.0000 C   0  0  0  0  0  0  0  0  0  0  0  0
   -0.6495   -1.5000    0.0000 C   0  0  0  0  0  0  0  0  0  0  0  0
   -1.9486   -0.7500    0.0000 C   0  0  0  0  0  0  0  0  0  0  0  0
   -1.9486    0.7500    0.0000 C   0  0  0  0  0  0  0  0  0  0  0  0
   -0.6495    1.5000    0.0000 C   0  0  0  0  0  0  0  0  0  0  0  0
    0.6495    0.7500    0.0000 C   0  0  0  0  0  0  0  0  0  0  0  0
    1.9486    1.5000    0.0000 N   0  0  0  0  0  0  0  0  0  0  0  0
  1  2  1  0
  2  3  1  0
  3  4  1  0
  4  5  1  0
  5  6  1  0
  6  7  1  0
  7  8  1  0
  7  2  1  0
M  END
> <Identifier>
1,2-Diaminocyclohexane

> <SkinReaction>
1

$$$$

     RDKit          2D

 13 14  0  0  0  0  0  0  0  0999 V2000
    4.0433   -0.5455    0.0000 O   0  0  0  0  0  0  0  0  0  0  0  0
    2.5793   -0.2188    0.0000 S   0  0  0  0  0  0  0  0  0  0  0  0
    2.2525   -1.6827    0.0000 O   0  0  0  0  0  0  0  0  0  0  0  0
    2.9061    1.2452    0.0000 Cl  0  0  0  0  0  0  0  0  0  0  0  0
    1.1153    0.1080    0.0000 C   0  0  0  0  0  0  0  0  0  0  0  0
    0.6663    1.5393    0.0000 C   0  0  0  0  0  0  0  0  0  0  0  0
   -0.7976    1.8660    0.0000 C   0  0  0  0  0  0  0  0  0  0  0  0
   -1.8126    0.7616    0.0000 C   0  0  0  0  0  0  0  0  0  0  0  0
   -1.3636   -0.6696    0.0000 C   0  0  0  0  0  0  0  0  0  0  0  0
    0.1003   -0.9964    0.0000 C   0  0  0  0  0  0  0  0  0  0  0  0
   -2.5861   -1.5389    0.0000 O   0  0  0  0  0  0  0  0  0  0  0  0
   -3.7906   -0.6450    0.0000 C   0  0  0  0  0  0  0  0  0  0  0  0
   -3.3126    0.7768    0.0000 O   0  0  0  0  0  0  0  0  0  0  0  0
  1  2  2  0
  2  3  2  0
  2  4  1  0
  2  5  1  0
  5  6  2  0
  6  7  1  0
  7  8  2  0
  8  9  1  0
  9 10  2  0
  9 11  1  0
 11 12  1  0
 12 13  1  0
 10  5  1  0
 13  8  1  0
M  END
> <Identifier>
1,3-Benzodioxazole-5- sulphonyl chloride

> <SkinReaction>
1

$$$$

     RDKit          2D

  8  8  0  0  0  0  0  0  0  0999 V2000
    3.0000    0.0000    0.0000 O   0  0  0  0  0  0  0  0  0  0  0  0
    1.5000   -0.0000    0.0000 C   0  0  0  0  0  0  0  0  0  0  0  0
    0.7500   -1.2990    0.0000 C   0  0  0  0  0  0  0  0  0  0  0  0
   -0.7500   -1.2990    0.0000 C   0  0  0  0  0  0  0  0  0  0  0  0
   -1.5000    0.0000    0.0000 C   0  0  0  0  0  0  0  0  0  0  0  0
   -3.0000    0.0000    0.0000 O   0  0  0  0  0  0  0  0  0  0  0  0
   -0.7500    1.2990    0.0000 C   0  0  0  0  0  0  0  0  0  0  0  0
    0.7500    1.2990    0.0000 C   0  0  0  0  0  0  0  0  0  0  0  0
  1  2  1  0
  2  3  2  0
  3  4  1  0
  4  5  2  0
  5  6  1  0
  5  7  1  0
  7  8  2  0
  8  2  1  0
M  END
> <Identifier>
1,4-Dihydroquinone

> <SkinReaction>
1

$$$$

     RDKit          2D

 15 14  0  0  0  0  0  0  0  0999 V2000
    6.7042   -1.6075    0.0000 O   0  0  0  0  0  0  0  0  0  0  0  0
    6.6722   -0.1078    0.0000 C   0  0  0  0  0  0  0  0  0  0  0  0
    7.9550    0.6697    0.0000 O   0  0  0  0  0  0  0  0  0  0  0  0
    5.3575    0.6143    0.0000 C   0  0  0  0  0  0  0  0  0  0  0  0
    4.0747   -0.1632    0.0000 C   0  0  0  0  0  0  0  0  0  0  0  0
    2.7600    0.5590    0.0000 C   0  0  0  0  0  0  0  0  0  0  0  0
    1.4772   -0.2186    0.0000 C   0  0  0  0  0  0  0  0  0  0  0  0
    0.1625    0.5036    0.0000 C   0  0  0  0  0  0  0  0  0  0  0  0
   -1.1202   -0.2739    0.0000 C   0  0  0  0  0  0  0  0  0  0  0  0
   -2.4350    0.4482    0.0000 C   0  0  0  0  0  0  0  0  0  0  0  0
   -3.7177   -0.3293    0.0000 C   0  0  0  0  0  0  0  0  0  0  0  0
   -5.0325    0.3928    0.0000 C   0  0  0  0  0  0  0  0  0  0  0  0
   -6.3152   -0.3847    0.0000 C   0  0  0  0  0  0  0  0  0  0  0  0
   -7.6300    0.3374    0.0000 C   0  0  0  0  0  0  0  0  0  0  0  0
   -8.9127   -0.4401    0.0000 Br  0  0  0  0  0  0  0  0  0  0  0  0
  1  2  2  0
  2  3  1  0
  2  4  1  0
  4  5  1  0
  5  6  1  0
  6  7  1  0
  7  8  1  0
  8  9  1  0
  9 10  1  0
 10 11  1  0
 11 12  1  0
 12 13  1  0
 13 14  1  0
 14 15  1  0
M  END
> <Identifier>
12-Bromododecanoic acid

> <SkinReaction>
1

$$$$

     RDKit          2D

 18 21  0  0  0  0  0  0  0  0999 V2000
   -5.2192    0.8098    0.0000 Cl  0  0  0  0  0  0  0  0  0  0  0  0
   -3.7856    1.2511    0.0000 C   0  0  0  0  0  0  0  0  0  0  0  0
   -2.6866    0.2302    0.0000 C   0  0  0  0  0  0  0  0  0  0  0  0
   -3.0212   -1.2320    0.0000 C   0  0  0  0  0  0  0  0  0  0  0  0
   -1.9223   -2.2529    0.0000 C   0  0  0  0  0  0  0  0  0  0  0  0
   -0.4887   -1.8116    0.0000 C   0  0  0  0  0  0  0  0  0  0  0  0
    0.6103   -2.8325    0.0000 C   0  0  0  0  0  0  0  0  0  0  0  0
    2.0439   -2.3913    0.0000 C   0  0  0  0  0  0  0  0  0  0  0  0
    2.3786   -0.9291    0.0000 C   0  0  0  0  0  0  0  0  0  0  0  0
    3.8122   -0.4878    0.0000 C   0  0  0  0  0  0  0  0  0  0  0  0
    4.1468    0.9744    0.0000 C   0  0  0  0  0  0  0  0  0  0  0  0
    3.0479    1.9953    0.0000 C   0  0  0  0  0  0  0  0  0  0  0  0
    1.6142    1.5540    0.0000 C   0  0  0  0  0  0  0  0  0  0  0  0
    0.5153    2.5749    0.0000 C   0  0  0  0  0  0  0  0  0  0  0  0
   -0.9183    2.1337    0.0000 C   0  0  0  0  0  0  0  0  0  0  0  0
   -1.2530    0.6715    0.0000 C   0  0  0  0  0  0  0  0  0  0  0  0
   -0.1540   -0.3494    0.0000 C   0  0  0  0  0  0  0  0  0  0  0  0
    1.2796    0.0918    0.0000 C   0  0  0  0  0  0  0  0  0  0  0  0
  1  2  1  0
  2  3  1  0
  3  4  2  0
  4  5  1  0
  5  6  2  0
  6  7  1  0
  7  8  2  0
  8  9  1  0
  9 10  2  0
 10 11  1  0
 11 12  2  0
 12 13  1  0
 13 14  2  0
 14 15  1  0
 15 16  2  0
 16 17  1  0
 17 18  2  0
 16  3  1  0
 17  6  1  0
 18  9  1  0
 18 13  1  0
M  END
> <Identifier>
1-Chloromethyl- pyrene

> <SkinReaction>
1

$$$$

     RDKit          2D

 11 11  0  0  0  0  0  0  0  0999 V2000
   -3.6680    0.0911    0.0000 C   0  0  0  0  0  0  0  0  0  0  0  0
   -2.2095    0.4412    0.0000 C   0  0  0  0  0  0  0  0  0  0  0  0
   -1.7834    1.8794    0.0000 O   0  0  0  0  0  0  0  0  0  0  0  0
   -1.1770   -0.6469    0.0000 C   0  0  0  0  0  0  0  0  0  0  0  0
   -1.6031   -2.0851    0.0000 O   0  0  0  0  0  0  0  0  0  0  0  0
    0.2816   -0.2968    0.0000 C   0  0  0  0  0  0  0  0  0  0  0  0
    0.7077    1.1415    0.0000 C   0  0  0  0  0  0  0  0  0  0  0  0
    2.1662    1.4916    0.0000 C   0  0  0  0  0  0  0  0  0  0  0  0
    3.1987    0.4035    0.0000 C   0  0  0  0  0  0  0  0  0  0  0  0
    2.7726   -1.0347    0.0000 C   0  0  0  0  0  0  0  0  0  0  0  0
    1.3141   -1.3849    0.0000 C   0  0  0  0  0  0  0  0  0  0  0  0
  1  2  1  0
  2  3  2  0
  2  4  1  0
  4  5  2  0
  4  6  1  0
  6  7  2  0
  7  8  1  0
  8  9  2  0
  9 10  1  0
 10 11  2  0
 11  6  1  0
M  END
> <Identifier>
1-Phenyl-1,2-propanedione

> <SkinReaction>
1

$$$$

     RDKit          2D

 13 13  0  0  0  0  0  0  0  0999 V2000
   -3.1028    1.8955    0.0000 C   0  0  0  0  0  0  0  0  0  0  0  0
   -1.8447    1.0787    0.0000 C   0  0  0  0  0  0  0  0  0  0  0  0
   -0.5083    1.7597    0.0000 O   0  0  0  0  0  0  0  0  0  0  0  0
   -1.9231   -0.4193    0.0000 C   0  0  0  0  0  0  0  0  0  0  0  0
   -3.2596   -1.1004    0.0000 C   0  0  0  0  0  0  0  0  0  0  0  0
   -0.6651   -1.2362    0.0000 C   0  0  0  0  0  0  0  0  0  0  0  0
   -0.7435   -2.7341    0.0000 O   0  0  0  0  0  0  0  0  0  0  0  0
    0.6714   -0.5551    0.0000 C   0  0  0  0  0  0  0  0  0  0  0  0
    0.7498    0.9429    0.0000 C   0  0  0  0  0  0  0  0  0  0  0  0
    2.0863    1.6239    0.0000 C   0  0  0  0  0  0  0  0  0  0  0  0
    3.3443    0.8071    0.0000 C   0  0  0  0  0  0  0  0  0  0  0  0
    3.2659   -0.6909    0.0000 C   0  0  0  0  0  0  0  0  0  0  0  0
    1.9294   -1.3720    0.0000 C   0  0  0  0  0  0  0  0  0  0  0  0
  1  2  1  0
  2  3  2  0
  2  4  1  0
  4  5  1  0
  4  6  1  0
  6  7  2  0
  6  8  1  0
  8  9  2  0
  9 10  1  0
 10 11  2  0
 11 12  1  0
 12 13  2  0
 13  8  1  0
M  END
> <Identifier>
1-Phenyl-2-methylbutane-1,3-dione

> <SkinReaction>
1

$$$$

     RDKit          2D

 15 16  0  0  0  0  0  0  0  0999 V2000
   -4.6427    1.7837    0.0000 C   0  0  0  0  0  0  0  0  0  0  0  0
   -3.4795    0.8366    0.0000 C   0  0  0  0  0  0  0  0  0  0  0  0
   -3.5620   -0.6611    0.0000 C   0  0  0  0  0  0  0  0  0  0  0  0
   -2.1631   -1.2024    0.0000 C   0  0  0  0  0  0  0  0  0  0  0  0
   -1.7787   -2.6523    0.0000 O   0  0  0  0  0  0  0  0  0  0  0  0
   -1.2160   -0.0392    0.0000 N   0  0  0  0  0  0  0  0  0  0  0  0
    0.2817   -0.1217    0.0000 C   0  0  0  0  0  0  0  0  0  0  0  0
    0.9592   -1.4600    0.0000 C   0  0  0  0  0  0  0  0  0  0  0  0
    2.4569   -1.5425    0.0000 C   0  0  0  0  0  0  0  0  0  0  0  0
    3.2772   -0.2866    0.0000 C   0  0  0  0  0  0  0  0  0  0  0  0
    4.7749   -0.3691    0.0000 C   0  0  0  0  0  0  0  0  0  0  0  0
    2.5998    1.0517    0.0000 C   0  0  0  0  0  0  0  0  0  0  0  0
    3.4201    2.3075    0.0000 C   0  0  0  0  0  0  0  0  0  0  0  0
    1.1020    1.1342    0.0000 C   0  0  0  0  0  0  0  0  0  0  0  0
   -2.0296    1.2210    0.0000 N   0  0  0  0  0  0  0  0  0  0  0  0
  1  2  1  0
  2  3  2  0
  3  4  1  0
  4  5  2  0
  4  6  1  0
  6  7  1  0
  7  8  2  0
  8  9  1  0
  9 10  2  0
 10 11  1  0
 10 12  1  0
 12 13  1  0
 12 14  2  0
  6 15  1  0
 15  2  1  0
 14  7  1  0
M  END
> <Identifier>
2-(3,4-Dimethylphenyl)-5-methyl-2,4-dihydro-3H-pyrazol-3-one

> <SkinReaction>
1

$$$$

     RDKit          2D

 14 14  0  0  0  0  0  0  0  0999 V2000
   -4.6993   -1.3005    0.0000 C   0  0  0  0  0  0  0  0  0  0  0  0
   -4.0273    0.0406    0.0000 C   0  0  0  0  0  0  0  0  0  0  0  0
   -2.5299    0.1292    0.0000 C   0  0  0  0  0  0  0  0  0  0  0  0
   -2.6185    1.6266    0.0000 C   0  0  0  0  0  0  0  0  0  0  0  0
   -2.4413   -1.3682    0.0000 C   0  0  0  0  0  0  0  0  0  0  0  0
   -1.0325    0.2178    0.0000 C   0  0  0  0  0  0  0  0  0  0  0  0
   -0.3605    1.5588    0.0000 C   0  0  0  0  0  0  0  0  0  0  0  0
    1.1368    1.6474    0.0000 C   0  0  0  0  0  0  0  0  0  0  0  0
    1.9622    0.3949    0.0000 C   0  0  0  0  0  0  0  0  0  0  0  0
    3.4596    0.4835    0.0000 C   0  0  0  0  0  0  0  0  0  0  0  0
    4.2850   -0.7690    0.0000 C   0  0  0  0  0  0  0  0  0  0  0  0
    5.7824   -0.6804    0.0000 O   0  0  0  0  0  0  0  0  0  0  0  0
    1.2903   -0.9461    0.0000 C   0  0  0  0  0  0  0  0  0  0  0  0
   -0.2071   -1.0347    0.0000 C   0  0  0  0  0  0  0  0  0  0  0  0
  1  2  1  0
  2  3  1  0
  3  4  1  0
  3  5  1  0
  3  6  1  0
  6  7  1  0
  7  8  1  0
  8  9  1  0
  9 10  1  0
 10 11  1  0
 11 12  2  0
  9 13  1  0
 13 14  1  0
 14  6  1  0
M  END
> <Identifier>
2-(4-tert-Amylcyclohexyl)acetaldehyde

> <SkinReaction>
1

$$$$

     RDKit          2D

 13 12  0  0  0  0  0  0  0  0999 V2000
   -3.3481    0.9529    0.0000 C   0  0  0  0  0  0  0  0  0  0  0  0
   -2.5981   -0.3462    0.0000 C   0  0  0  0  0  0  0  0  0  0  0  0
   -1.8481   -1.6452    0.0000 C   0  0  0  0  0  0  0  0  0  0  0  0
   -3.8971   -1.0962    0.0000 C   0  0  0  0  0  0  0  0  0  0  0  0
   -1.2990    0.4038    0.0000 C   0  0  0  0  0  0  0  0  0  0  0  0
   -1.2990    1.9038    0.0000 O   0  0  0  0  0  0  0  0  0  0  0  0
    0.0000   -0.3462    0.0000 C   0  0  0  0  0  0  0  0  0  0  0  0
    1.2990    0.4038    0.0000 C   0  0  0  0  0  0  0  0  0  0  0  0
    1.2990    1.9038    0.0000 O   0  0  0  0  0  0  0  0  0  0  0  0
    2.5981   -0.3462    0.0000 C   0  0  0  0  0  0  0  0  0  0  0  0
    3.3481    0.9529    0.0000 C   0  0  0  0  0  0  0  0  0  0  0  0
    1.8481   -1.6452    0.0000 C   0  0  0  0  0  0  0  0  0  0  0  0
    3.8971   -1.0962    0.0000 C   0  0  0  0  0  0  0  0  0  0  0  0
  1  2  1  0
  2  3  1  0
  2  4  1  0
  2  5  1  0
  5  6  2  0
  5  7  1  0
  7  8  1  0
  8  9  2  0
  8 10  1  0
 10 11  1  0
 10 12  1  0
 10 13  1  0
M  END
> <Identifier>
2,2,6,6-Tetramethyl-heptane-3,5-dione

> <SkinReaction>
1

$$$$

     RDKit          2D

 37 38  0  0  0  0  0  0  0  0999 V2000
  -13.7141   -0.9608    0.0000 C   0  0  0  0  0  0  0  0  0  0  0  0
  -13.3234    0.4874    0.0000 C   0  0  0  0  0  0  0  0  0  0  0  0
  -14.3822    1.5499    0.0000 C   0  0  0  0  0  0  0  0  0  0  0  0
  -11.8738    0.8731    0.0000 C   0  0  0  0  0  0  0  0  0  0  0  0
  -11.4831    2.3214    0.0000 O   0  0  0  0  0  0  0  0  0  0  0  0
  -10.8150   -0.1894    0.0000 O   0  0  0  0  0  0  0  0  0  0  0  0
   -9.3654    0.1964    0.0000 C   0  0  0  0  0  0  0  0  0  0  0  0
   -8.3066   -0.8661    0.0000 C   0  0  0  0  0  0  0  0  0  0  0  0
   -8.6973   -2.3143    0.0000 O   0  0  0  0  0  0  0  0  0  0  0  0
   -6.8571   -0.4804    0.0000 C   0  0  0  0  0  0  0  0  0  0  0  0
   -5.7982   -1.5429    0.0000 O   0  0  0  0  0  0  0  0  0  0  0  0
   -4.3487   -1.1572    0.0000 C   0  0  0  0  0  0  0  0  0  0  0  0
   -3.9579    0.2910    0.0000 C   0  0  0  0  0  0  0  0  0  0  0  0
   -2.5084    0.6768    0.0000 C   0  0  0  0  0  0  0  0  0  0  0  0
   -1.4496   -0.3857    0.0000 C   0  0  0  0  0  0  0  0  0  0  0  0
   -0.0000   -0.0000    0.0000 C   0  0  0  0  0  0  0  0  0  0  0  0
   -0.3857    1.4496    0.0000 C   0  0  0  0  0  0  0  0  0  0  0  0
    0.3857   -1.4496    0.0000 C   0  0  0  0  0  0  0  0  0  0  0  0
    1.4496    0.3857    0.0000 C   0  0  0  0  0  0  0  0  0  0  0  0
    2.5084   -0.6768    0.0000 C   0  0  0  0  0  0  0  0  0  0  0  0
    3.9579   -0.2910    0.0000 C   0  0  0  0  0  0  0  0  0  0  0  0
    4.3487    1.1572    0.0000 C   0  0  0  0  0  0  0  0  0  0  0  0
    5.7982    1.5429    0.0000 O   0  0  0  0  0  0  0  0  0  0  0  0
    6.8571    0.4804    0.0000 C   0  0  0  0  0  0  0  0  0  0  0  0
    8.3066    0.8661    0.0000 C   0  0  0  0  0  0  0  0  0  0  0  0
    8.6973    2.3143    0.0000 O   0  0  0  0  0  0  0  0  0  0  0  0
    9.3654   -0.1964    0.0000 C   0  0  0  0  0  0  0  0  0  0  0  0
   10.8150    0.1894    0.0000 O   0  0  0  0  0  0  0  0  0  0  0  0
   11.8738   -0.8731    0.0000 C   0  0  0  0  0  0  0  0  0  0  0  0
   11.4831   -2.3214    0.0000 O   0  0  0  0  0  0  0  0  0  0  0  0
   13.3234   -0.4874    0.0000 C   0  0  0  0  0  0  0  0  0  0  0  0
   13.7141    0.9608    0.0000 C   0  0  0  0  0  0  0  0  0  0  0  0
   14.3822   -1.5499    0.0000 C   0  0  0  0  0  0  0  0  0  0  0  0
    3.2898    2.2197    0.0000 C   0  0  0  0  0  0  0  0  0  0  0  0
    1.8403    1.8339    0.0000 C   0  0  0  0  0  0  0  0  0  0  0  0
   -1.8403   -1.8339    0.0000 C   0  0  0  0  0  0  0  0  0  0  0  0
   -3.2898   -2.2197    0.0000 C   0  0  0  0  0  0  0  0  0  0  0  0
  1  2  2  0
  2  3  1  0
  2  4  1  0
  4  5  2  0
  4  6  1  0
  6  7  1  0
  7  8  1  0
  8  9  1  0
  8 10  1  0
 10 11  1  0
 11 12  1  0
 12 13  2  0
 13 14  1  0
 14 15  2  0
 15 16  1  0
 16 17  1  0
 16 18  1  0
 16 19  1  0
 19 20  2  0
 20 21  1  0
 21 22  2  0
 22 23  1  0
 23 24  1  0
 24 25  1  0
 25 26  1  0
 25 27  1  0
 27 28  1  0
 28 29  1  0
 29 30  2  0
 29 31  1  0
 31 32  2  0
 31 33  1  0
 22 34  1  0
 34 35  2  0
 15 36  1  0
 36 37  2  0
 37 12  1  0
 35 19  1  0
M  END
> <Identifier>
2,2-bis-[4-(2-hydroxy-3methacryloxypropoxy)phenyl)]-propane

> <SkinReaction>
1

$$$$

     RDKit          2D

  9  9  0  0  0  0  0  0  0  0999 V2000
    3.0000    0.0000    0.0000 Cl  0  0  0  0  0  0  0  0  0  0  0  0
    1.5000   -0.0000    0.0000 C   0  0  0  0  0  0  0  0  0  0  0  0
    0.7500   -1.2990    0.0000 N   0  0  0  0  0  0  0  0  0  0  0  0
   -0.7500   -1.2990    0.0000 C   0  0  0  0  0  0  0  0  0  0  0  0
   -1.5000   -2.5981    0.0000 Cl  0  0  0  0  0  0  0  0  0  0  0  0
   -1.5000    0.0000    0.0000 N   0  0  0  0  0  0  0  0  0  0  0  0
   -0.7500    1.2990    0.0000 C   0  0  0  0  0  0  0  0  0  0  0  0
   -1.5000    2.5981    0.0000 Cl  0  0  0  0  0  0  0  0  0  0  0  0
    0.7500    1.2990    0.0000 N   0  0  0  0  0  0  0  0  0  0  0  0
  1  2  1  0
  2  3  2  0
  3  4  1  0
  4  5  1  0
  4  6  2  0
  6  7  1  0
  7  8  1  0
  7  9  2  0
  9  2  1  0
M  END
> <Identifier>
2,4,6-Trichloro- 1,3,5-triazine

> <SkinReaction>
1

$$$$

     RDKit          2D

  8  8  0  0  0  0  0  0  0  0999 V2000
   -2.5981   -1.1250    0.0000 Cl  0  0  0  0  0  0  0  0  0  0  0  0
   -1.2990   -0.3750    0.0000 C   0  0  0  0  0  0  0  0  0  0  0  0
   -1.2990    1.1250    0.0000 C   0  0  0  0  0  0  0  0  0  0  0  0
    0.0000    1.8750    0.0000 C   0  0  0  0  0  0  0  0  0  0  0  0
    1.2990    1.1250    0.0000 N   0  0  0  0  0  0  0  0  0  0  0  0
    1.2990   -0.3750    0.0000 C   0  0  0  0  0  0  0  0  0  0  0  0
    2.5981   -1.1250    0.0000 Cl  0  0  0  0  0  0  0  0  0  0  0  0
   -0.0000   -1.1250    0.0000 N   0  0  0  0  0  0  0  0  0  0  0  0
  1  2  1  0
  2  3  2  0
  3  4  1  0
  4  5  2  0
  5  6  1  0
  6  7  1  0
  6  8  2  0
  8  2  1  0
M  END
> <Identifier>
2,4-Dichloro-pyrimidine

> <SkinReaction>
1

$$$$

     RDKit          2D

 16 16  0  0  0  0  0  0  0  0999 V2000
   -4.0969   -1.3945    0.0000 O   0  0  0  0  0  0  0  0  0  0  0  0
   -3.5613    0.0066    0.0000 N   0  0  0  0  0  4  0  0  0  0  0  0
   -4.5068    1.1710    0.0000 O   0  0  0  0  0  1  0  0  0  0  0  0
   -2.0800    0.2432    0.0000 C   0  0  0  0  0  0  0  0  0  0  0  0
   -1.5444    1.6443    0.0000 C   0  0  0  0  0  0  0  0  0  0  0  0
   -0.0632    1.8810    0.0000 C   0  0  0  0  0  0  0  0  0  0  0  0
    0.8824    0.7165    0.0000 C   0  0  0  0  0  0  0  0  0  0  0  0
    2.3636    0.9532    0.0000 S   0  0  0  0  0  0  0  0  0  0  0  0
    2.1270    2.4344    0.0000 O   0  0  0  0  0  0  0  0  0  0  0  0
    2.6002   -0.5281    0.0000 O   0  0  0  0  0  0  0  0  0  0  0  0
    3.8448    1.1898    0.0000 O   0  0  0  0  0  0  0  0  0  0  0  0
    0.3467   -0.6846    0.0000 C   0  0  0  0  0  0  0  0  0  0  0  0
    1.2923   -1.8490    0.0000 N   0  0  0  0  0  4  0  0  0  0  0  0
    2.7735   -1.6124    0.0000 O   0  0  0  0  0  0  0  0  0  0  0  0
    0.7566   -3.2501    0.0000 O   0  0  0  0  0  1  0  0  0  0  0  0
   -1.1345   -0.9212    0.0000 C   0  0  0  0  0  0  0  0  0  0  0  0
  1  2  2  0
  2  3  1  0
  2  4  1  0
  4  5  2  0
  5  6  1  0
  6  7  2  0
  7  8  1  0
  8  9  2  0
  8 10  2  0
  8 11  1  0
  7 12  1  0
 12 13  1  0
 13 14  2  0
 13 15  1  0
 12 16  2  0
 16  4  1  0
M  CHG  4   2   1   3  -1  13   1  15  -1
M  END
> <Identifier>
2,4-Dinitrobenzene sulfonic acid

> <SkinReaction>
1

$$$$

     RDKit          2D

  8  7  0  0  0  0  0  0  0  0999 V2000
   -4.5553   -0.2480    0.0000 C   0  0  0  0  0  0  0  0  0  0  0  0
   -3.2359    0.4655    0.0000 C   0  0  0  0  0  0  0  0  0  0  0  0
   -1.9583   -0.3205    0.0000 C   0  0  0  0  0  0  0  0  0  0  0  0
   -0.6388    0.3930    0.0000 C   0  0  0  0  0  0  0  0  0  0  0  0
    0.6388   -0.3930    0.0000 C   0  0  0  0  0  0  0  0  0  0  0  0
    1.9583    0.3205    0.0000 C   0  0  0  0  0  0  0  0  0  0  0  0
    3.2359   -0.4655    0.0000 C   0  0  0  0  0  0  0  0  0  0  0  0
    4.5553    0.2480    0.0000 O   0  0  0  0  0  0  0  0  0  0  0  0
  1  2  1  0
  2  3  1  0
  3  4  2  3
  4  5  1  0
  5  6  2  3
  6  7  1  0
  7  8  2  0
M  END
> <Identifier>
2,4-Heptadienal

> <SkinReaction>
1

$$$$

     RDKit          2D

  9  9  0  0  0  0  0  0  0  0999 V2000
    1.8243   -1.9450    0.0000 C   0  0  0  0  0  0  0  0  0  0  0  0
    0.7981   -0.8510    0.0000 C   0  0  0  0  0  0  0  0  0  0  0  0
   -0.6625   -1.1926    0.0000 C   0  0  0  0  0  0  0  0  0  0  0  0
   -1.6886   -0.0985    0.0000 C   0  0  0  0  0  0  0  0  0  0  0  0
   -3.1492   -0.4401    0.0000 N   0  0  0  0  0  0  0  0  0  0  0  0
   -1.2542    1.3372    0.0000 C   0  0  0  0  0  0  0  0  0  0  0  0
    0.2064    1.6788    0.0000 C   0  0  0  0  0  0  0  0  0  0  0  0
    1.2325    0.5848    0.0000 C   0  0  0  0  0  0  0  0  0  0  0  0
    2.6931    0.9264    0.0000 N   0  0  0  0  0  0  0  0  0  0  0  0
  1  2  1  0
  2  3  2  0
  3  4  1  0
  4  5  1  0
  4  6  2  0
  6  7  1  0
  7  8  2  0
  8  9  1  0
  8  2  1  0
M  END
> <Identifier>
2,5-Diaminotoluene

> <SkinReaction>
1

$$$$

     RDKit          2D

 11 11  0  0  0  0  0  0  0  0999 V2000
    1.4891   -2.5367    0.0000 C   0  0  0  0  0  0  0  0  0  0  0  0
    1.2188   -1.0613    0.0000 C   0  0  0  0  0  0  0  0  0  0  0  0
   -0.1941   -0.5577    0.0000 C   0  0  0  0  0  0  0  0  0  0  0  0
   -1.3367   -1.5295    0.0000 C   0  0  0  0  0  0  0  0  0  0  0  0
   -2.7497   -1.0259    0.0000 O   0  0  0  0  0  0  0  0  0  0  0  0
   -0.4644    0.9178    0.0000 C   0  0  0  0  0  0  0  0  0  0  0  0
   -1.8705    0.3954    0.0000 C   0  0  0  0  0  0  0  0  0  0  0  0
   -1.2231    2.2118    0.0000 C   0  0  0  0  0  0  0  0  0  0  0  0
    0.6782    1.8896    0.0000 C   0  0  0  0  0  0  0  0  0  0  0  0
    2.0911    1.3860    0.0000 C   0  0  0  0  0  0  0  0  0  0  0  0
    2.3614   -0.0895    0.0000 C   0  0  0  0  0  0  0  0  0  0  0  0
  1  2  1  0
  2  3  2  0
  3  4  1  0
  4  5  2  0
  3  6  1  0
  6  7  1  0
  6  8  1  0
  6  9  1  0
  9 10  1  0
 10 11  2  0
 11  2  1  0
M  END
> <Identifier>
2,6,6-Trimethyl-1,3-cyclohexadiene-1-carbaldehyde

> <SkinReaction>
1

$$$$

     RDKit          2D

 29 31  0  0  0  0  0  0  0  0999 V2000
    5.9180   -4.0432    0.0000 C   0  0  0  0  0  0  0  0  0  0  0  0
    5.8059   -2.5474    0.0000 O   0  0  0  0  0  0  0  0  0  0  0  0
    4.4545   -1.8965    0.0000 C   0  0  0  0  0  0  0  0  0  0  0  0
    3.2151   -2.7415    0.0000 C   0  0  0  0  0  0  0  0  0  0  0  0
    1.8637   -2.0907    0.0000 C   0  0  0  0  0  0  0  0  0  0  0  0
    0.6243   -2.9357    0.0000 C   0  0  0  0  0  0  0  0  0  0  0  0
    1.7515   -0.5949    0.0000 C   0  0  0  0  0  0  0  0  0  0  0  0
    0.4001    0.0559    0.0000 C   0  0  0  0  0  0  0  0  0  0  0  0
   -0.8393   -0.7891    0.0000 O   0  0  0  0  0  0  0  0  0  0  0  0
   -2.1907   -0.1383    0.0000 C   0  0  0  0  0  0  0  0  0  0  0  0
   -2.3028    1.3576    0.0000 C   0  0  0  0  0  0  0  0  0  0  0  0
   -3.6543    2.0084    0.0000 C   0  0  0  0  0  0  0  0  0  0  0  0
   -4.8936    1.1634    0.0000 C   0  0  0  0  0  0  0  0  0  0  0  0
   -4.7815   -0.3324    0.0000 C   0  0  0  0  0  0  0  0  0  0  0  0
   -6.0209   -1.1774    0.0000 C   0  0  0  0  0  0  0  0  0  0  0  0
   -7.2602   -2.0224    0.0000 F   0  0  0  0  0  0  0  0  0  0  0  0
   -6.8659    0.0619    0.0000 F   0  0  0  0  0  0  0  0  0  0  0  0
   -5.1759   -2.4168    0.0000 F   0  0  0  0  0  0  0  0  0  0  0  0
   -3.4301   -0.9832    0.0000 C   0  0  0  0  0  0  0  0  0  0  0  0
    0.2880    1.5517    0.0000 C   0  0  0  0  0  0  0  0  0  0  0  0
   -1.0635    2.2025    0.0000 O   0  0  0  0  0  0  0  0  0  0  0  0
   -1.1756    3.6983    0.0000 C   0  0  0  0  0  0  0  0  0  0  0  0
    1.5273    2.3967    0.0000 C   0  0  0  0  0  0  0  0  0  0  0  0
    2.8788    1.7459    0.0000 C   0  0  0  0  0  0  0  0  0  0  0  0
    4.1181    2.5909    0.0000 N   0  0  0  0  0  4  0  0  0  0  0  0
    5.4696    1.9401    0.0000 O   0  0  0  0  0  0  0  0  0  0  0  0
    4.0060    4.0867    0.0000 O   0  0  0  0  0  1  0  0  0  0  0  0
    2.9909    0.2501    0.0000 C   0  0  0  0  0  0  0  0  0  0  0  0
    4.3424   -0.4007    0.0000 N   0  0  0  0  0  0  0  0  0  0  0  0
  1  2  1  0
  2  3  1  0
  3  4  2  0
  4  5  1  0
  5  6  1  0
  5  7  2  0
  7  8  1  0
  8  9  1  0
  9 10  1  0
 10 11  2  0
 11 12  1  0
 12 13  2  0
 13 14  1  0
 14 15  1  0
 15 16  1  0
 15 17  1  0
 15 18  1  0
 14 19  2  0
  8 20  2  0
 20 21  1  0
 21 22  1  0
 20 23  1  0
 23 24  2  0
 24 25  1  0
 25 26  2  0
 25 27  1  0
 24 28  1  0
 28 29  2  0
 29  3  1  0
 28  7  1  0
 19 10  1  0
M  CHG  2  25   1  27  -1
M  END
> <Identifier>
2,6-Dimethoxy-4-methyl-8-nitro-5-[3-(trifluoromethyl)-phenoxy]quinoline

> <SkinReaction>
1

$$$$

     RDKit          2D

 12 12  0  0  0  0  0  0  0  0999 V2000
    1.8750   -2.5981    0.0000 N   0  0  0  0  0  0  0  0  0  0  0  0
    1.1250   -1.2990    0.0000 C   0  0  0  0  0  0  0  0  0  0  0  0
   -0.3750   -1.2990    0.0000 C   0  0  0  0  0  0  0  0  0  0  0  0
   -1.1250   -0.0000    0.0000 C   0  0  0  0  0  0  0  0  0  0  0  0
   -2.6250    0.0000    0.0000 N   0  0  0  0  0  4  0  0  0  0  0  0
   -3.3750   -1.2990    0.0000 O   0  0  0  0  0  0  0  0  0  0  0  0
   -3.3750    1.2990    0.0000 O   0  0  0  0  0  1  0  0  0  0  0  0
   -0.3750    1.2990    0.0000 C   0  0  0  0  0  0  0  0  0  0  0  0
    1.1250    1.2990    0.0000 C   0  0  0  0  0  0  0  0  0  0  0  0
    1.8750    2.5981    0.0000 Cl  0  0  0  0  0  0  0  0  0  0  0  0
    1.8750   -0.0000    0.0000 C   0  0  0  0  0  0  0  0  0  0  0  0
    3.3750    0.0000    0.0000 O   0  0  0  0  0  0  0  0  0  0  0  0
  1  2  1  0
  2  3  2  0
  3  4  1  0
  4  5  1  0
  5  6  2  0
  5  7  1  0
  4  8  2  0
  8  9  1  0
  9 10  1  0
  9 11  2  0
 11 12  1  0
 11  2  1  0
M  CHG  2   5   1   7  -1
M  END
> <Identifier>
2-Amino-6-chloro- 4-nitrophenol

> <SkinReaction>
1

$$$$

     RDKit          2D

 14 15  0  0  0  0  0  0  0  0999 V2000
   -2.6408   -2.4538    0.0000 N   0  0  0  0  0  0  0  0  0  0  0  0
   -2.5076   -0.9598    0.0000 C   0  0  0  0  0  0  0  0  0  0  0  0
   -3.7349   -0.0974    0.0000 C   0  0  0  0  0  0  0  0  0  0  0  0
   -3.6018    1.3967    0.0000 C   0  0  0  0  0  0  0  0  0  0  0  0
   -2.2413    2.0284    0.0000 C   0  0  0  0  0  0  0  0  0  0  0  0
   -1.0140    1.1660    0.0000 C   0  0  0  0  0  0  0  0  0  0  0  0
   -1.1471   -0.3280    0.0000 C   0  0  0  0  0  0  0  0  0  0  0  0
    0.0802   -1.1904    0.0000 N   0  0  0  0  0  0  0  0  0  0  0  0
    1.4407   -0.5587    0.0000 C   0  0  0  0  0  0  0  0  0  0  0  0
    2.6680   -1.4210    0.0000 C   0  0  0  0  0  0  0  0  0  0  0  0
    4.0285   -0.7893    0.0000 C   0  0  0  0  0  0  0  0  0  0  0  0
    4.1617    0.7048    0.0000 C   0  0  0  0  0  0  0  0  0  0  0  0
    2.9344    1.5671    0.0000 C   0  0  0  0  0  0  0  0  0  0  0  0
    1.5739    0.9354    0.0000 C   0  0  0  0  0  0  0  0  0  0  0  0
  1  2  1  0
  2  3  2  0
  3  4  1  0
  4  5  2  0
  5  6  1  0
  6  7  2  0
  7  8  1  0
  8  9  1  0
  9 10  2  0
 10 11  1  0
 11 12  2  0
 12 13  1  0
 13 14  2  0
  7  2  1  0
 14  9  1  0
M  END
> <Identifier>
2-Amino-di- phenylamine

> <SkinReaction>
1

$$$$

     RDKit          2D

 17 16  0  0  0  0  0  0  0  0999 V2000
   -9.9355   -0.3036    0.0000 C   0  0  0  0  0  0  0  0  0  0  0  0
   -8.6327    0.4399    0.0000 C   0  0  0  0  0  0  0  0  0  0  0  0
   -7.3374   -0.3165    0.0000 C   0  0  0  0  0  0  0  0  0  0  0  0
   -6.0347    0.4270    0.0000 C   0  0  0  0  0  0  0  0  0  0  0  0
   -4.7394   -0.3294    0.0000 C   0  0  0  0  0  0  0  0  0  0  0  0
   -3.4366    0.4141    0.0000 C   0  0  0  0  0  0  0  0  0  0  0  0
   -2.1413   -0.3423    0.0000 C   0  0  0  0  0  0  0  0  0  0  0  0
   -0.8386    0.4012    0.0000 C   0  0  0  0  0  0  0  0  0  0  0  0
    0.4567   -0.3552    0.0000 C   0  0  0  0  0  0  0  0  0  0  0  0
    1.7595    0.3883    0.0000 C   0  0  0  0  0  0  0  0  0  0  0  0
    3.0548   -0.3681    0.0000 C   0  0  0  0  0  0  0  0  0  0  0  0
    4.3575    0.3754    0.0000 C   0  0  0  0  0  0  0  0  0  0  0  0
    5.6528   -0.3810    0.0000 C   0  0  0  0  0  0  0  0  0  0  0  0
    5.6454   -1.8810    0.0000 Br  0  0  0  0  0  0  0  0  0  0  0  0
    6.9556    0.3625    0.0000 C   0  0  0  0  0  0  0  0  0  0  0  0
    6.9630    1.8625    0.0000 O   0  0  0  0  0  0  0  0  0  0  0  0
    8.2509   -0.3939    0.0000 O   0  0  0  0  0  0  0  0  0  0  0  0
  1  2  1  0
  2  3  1  0
  3  4  1  0
  4  5  1  0
  5  6  1  0
  6  7  1  0
  7  8  1  0
  8  9  1  0
  9 10  1  0
 10 11  1  0
 11 12  1  0
 12 13  1  0
 13 14  1  0
 13 15  1  0
 15 16  2  0
 15 17  1  0
M  END
> <Identifier>
2-Bromotetra-decanoic acid

> <SkinReaction>
1

$$$$

     RDKit          2D

 19 20  0  0  0  0  0  0  0  0999 V2000
   -6.1025   -1.3162    0.0000 O   0  0  0  0  0  0  0  0  0  0  0  0
   -5.4746    0.0460    0.0000 N   0  0  0  0  0  4  0  0  0  0  0  0
   -6.3403    1.2710    0.0000 O   0  0  0  0  0  1  0  0  0  0  0  0
   -3.9809    0.1833    0.0000 C   0  0  0  0  0  0  0  0  0  0  0  0
   -3.3529    1.5456    0.0000 C   0  0  0  0  0  0  0  0  0  0  0  0
   -1.8592    1.6829    0.0000 C   0  0  0  0  0  0  0  0  0  0  0  0
   -0.9935    0.4579    0.0000 C   0  0  0  0  0  0  0  0  0  0  0  0
    0.5002    0.5953    0.0000 O   0  0  0  0  0  0  0  0  0  0  0  0
    1.3660   -0.6297    0.0000 C   0  0  0  0  0  0  0  0  0  0  0  0
    2.8597   -0.4924    0.0000 C   0  0  0  0  0  0  0  0  0  0  0  0
    3.7255   -1.7173    0.0000 C   0  0  0  0  0  0  0  0  0  0  0  0
    5.2192   -1.5800    0.0000 C   0  0  0  0  0  0  0  0  0  0  0  0
    5.8471   -0.2178    0.0000 C   0  0  0  0  0  0  0  0  0  0  0  0
    4.9814    1.0072    0.0000 C   0  0  0  0  0  0  0  0  0  0  0  0
    5.6093    2.3694    0.0000 F   0  0  0  0  0  0  0  0  0  0  0  0
    3.4876    0.8699    0.0000 C   0  0  0  0  0  0  0  0  0  0  0  0
   -1.6214   -0.9043    0.0000 C   0  0  0  0  0  0  0  0  0  0  0  0
   -0.7556   -2.1292    0.0000 Cl  0  0  0  0  0  0  0  0  0  0  0  0
   -3.1151   -1.0416    0.0000 C   0  0  0  0  0  0  0  0  0  0  0  0
  1  2  2  0
  2  3  1  0
  2  4  1  0
  4  5  2  0
  5  6  1  0
  6  7  2  0
  7  8  1  0
  8  9  1  0
  9 10  1  0
 10 11  2  0
 11 12  1  0
 12 13  2  0
 13 14  1  0
 14 15  1  0
 14 16  2  0
  7 17  1  0
 17 18  1  0
 17 19  2  0
 19  4  1  0
 16 10  1  0
M  CHG  2   2   1   3  -1
M  END
> <Identifier>
2-Chloro-1-[(3- fluorophenyl)- methoxy]-4-nitrobenzene

> <SkinReaction>
1

$$$$

     RDKit          2D

 12 13  0  0  0  0  0  0  0  0999 V2000
   -3.6125   -1.2612    0.0000 C   0  0  0  0  0  0  0  0  0  0  0  0
   -2.2434   -0.6484    0.0000 C   0  0  0  0  0  0  0  0  0  0  0  0
   -1.0281   -1.5276    0.0000 N   0  0  0  0  0  0  0  0  0  0  0  0
    0.3410   -0.9148    0.0000 C   0  0  0  0  0  0  0  0  0  0  0  0
    1.5563   -1.7940    0.0000 C   0  0  0  0  0  0  0  0  0  0  0  0
    2.9254   -1.1812    0.0000 C   0  0  0  0  0  0  0  0  0  0  0  0
    3.0792    0.3109    0.0000 C   0  0  0  0  0  0  0  0  0  0  0  0
    1.8639    1.1902    0.0000 C   0  0  0  0  0  0  0  0  0  0  0  0
    0.4948    0.5773    0.0000 C   0  0  0  0  0  0  0  0  0  0  0  0
   -0.7205    1.4565    0.0000 C   0  0  0  0  0  0  0  0  0  0  0  0
   -0.5667    2.9486    0.0000 O   0  0  0  0  0  0  0  0  0  0  0  0
   -2.0896    0.8437    0.0000 O   0  0  0  0  0  0  0  0  0  0  0  0
  1  2  1  0
  2  3  2  0
  3  4  1  0
  4  5  2  0
  5  6  1  0
  6  7  2  0
  7  8  1  0
  8  9  2  0
  9 10  1  0
 10 11  2  0
 10 12  1  0
 12  2  1  0
  9  4  1  0
M  END
> <Identifier>
2-Methyl-4H-3,1-benzoxazin-4-one

> <SkinReaction>
1

$$$$

     RDKit          2D

 12 12  0  0  0  0  0  0  0  0999 V2000
   -4.1726   -0.1645    0.0000 C   0  0  0  0  0  0  0  0  0  0  0  0
   -2.7012    0.1270    0.0000 C   0  0  0  0  0  0  0  0  0  0  0  0
   -2.2179    1.5470    0.0000 C   0  0  0  0  0  0  0  0  0  0  0  0
   -0.7465    1.8385    0.0000 C   0  0  0  0  0  0  0  0  0  0  0  0
    0.2416    0.7100    0.0000 C   0  0  0  0  0  0  0  0  0  0  0  0
    1.7130    1.0015    0.0000 N   0  0  0  0  0  0  0  0  0  0  0  0
    2.7012   -0.1270    0.0000 C   0  0  0  0  0  0  0  0  0  0  0  0
    4.1726    0.1645    0.0000 C   0  0  0  0  0  0  0  0  0  0  0  0
    5.1607   -0.9641    0.0000 O   0  0  0  0  0  0  0  0  0  0  0  0
   -0.2416   -0.7100    0.0000 C   0  0  0  0  0  0  0  0  0  0  0  0
   -1.7130   -1.0015    0.0000 C   0  0  0  0  0  0  0  0  0  0  0  0
   -2.1963   -2.4215    0.0000 O   0  0  0  0  0  0  0  0  0  0  0  0
  1  2  1  0
  2  3  2  0
  3  4  1  0
  4  5  2  0
  5  6  1  0
  6  7  1  0
  7  8  1  0
  8  9  1  0
  5 10  1  0
 10 11  2  0
 11 12  1  0
 11  2  1  0
M  END
> <Identifier>
2-Methyl-5-hydroxy-ethylaminophenol

> <SkinReaction>
1

$$$$

     RDKit          2D

 20 21  0  0  0  0  0  0  0  0999 V2000
    0.1835    1.8478    0.0000 O   0  0  0  0  0  0  0  0  0  0  0  0
   -0.4271    0.4777    0.0000 C   0  0  0  0  0  0  0  0  0  0  0  0
    0.4541   -0.7361    0.0000 N   0  0  0  0  0  0  0  0  0  0  0  0
    1.9460   -0.5799    0.0000 C   0  0  0  0  0  0  0  0  0  0  0  0
    2.8272   -1.7938    0.0000 C   0  0  0  0  0  0  0  0  0  0  0  0
    4.3190   -1.6375    0.0000 C   0  0  0  0  0  0  0  0  0  0  0  0
    4.9297   -0.2674    0.0000 C   0  0  0  0  0  0  0  0  0  0  0  0
    6.4215   -0.1112    0.0000 Cl  0  0  0  0  0  0  0  0  0  0  0  0
    4.0484    0.9464    0.0000 C   0  0  0  0  0  0  0  0  0  0  0  0
    4.6591    2.3165    0.0000 Cl  0  0  0  0  0  0  0  0  0  0  0  0
    2.5566    0.7902    0.0000 C   0  0  0  0  0  0  0  0  0  0  0  0
   -1.9189    0.3215    0.0000 C   0  0  0  0  0  0  0  0  0  0  0  0
   -2.8001    1.5354    0.0000 C   0  0  0  0  0  0  0  0  0  0  0  0
   -4.2920    1.3791    0.0000 C   0  0  0  0  0  0  0  0  0  0  0  0
   -5.1732    2.5930    0.0000 Cl  0  0  0  0  0  0  0  0  0  0  0  0
   -4.9026    0.0091    0.0000 C   0  0  0  0  0  0  0  0  0  0  0  0
   -4.0214   -1.2048    0.0000 C   0  0  0  0  0  0  0  0  0  0  0  0
   -4.6320   -2.5749    0.0000 Cl  0  0  0  0  0  0  0  0  0  0  0  0
   -2.5295   -1.0486    0.0000 C   0  0  0  0  0  0  0  0  0  0  0  0
   -1.6483   -2.2624    0.0000 O   0  0  0  0  0  0  0  0  0  0  0  0
  1  2  2  0
  2  3  1  0
  3  4  1  0
  4  5  2  0
  5  6  1  0
  6  7  2  0
  7  8  1  0
  7  9  1  0
  9 10  1  0
  9 11  2  0
  2 12  1  0
 12 13  2  0
 13 14  1  0
 14 15  1  0
 14 16  2  0
 16 17  1  0
 17 18  1  0
 17 19  2  0
 19 20  1  0
 11  4  1  0
 19 12  1  0
M  END
> <Identifier>
3, 3', 4', 5-Tetrachloro-salicylanilide

> <SkinReaction>
1

$$$$

     RDKit          2D

 11 12  0  0  0  0  0  0  0  0999 V2000
   -3.7110    0.7996    0.0000 O   0  0  0  0  0  0  0  0  0  0  0  0
   -2.3117    0.2594    0.0000 C   0  0  0  0  0  0  0  0  0  0  0  0
   -2.0798   -1.2225    0.0000 C   0  0  0  0  0  0  0  0  0  0  0  0
   -0.6805   -1.7627    0.0000 C   0  0  0  0  0  0  0  0  0  0  0  0
    0.4870   -0.8209    0.0000 C   0  0  0  0  0  0  0  0  0  0  0  0
    1.8864   -1.3611    0.0000 C   0  0  0  0  0  0  0  0  0  0  0  0
    3.0539   -0.4194    0.0000 C   0  0  0  0  0  0  0  0  0  0  0  0
    2.8220    1.0626    0.0000 C   0  0  0  0  0  0  0  0  0  0  0  0
    1.4227    1.6028    0.0000 C   0  0  0  0  0  0  0  0  0  0  0  0
    0.2552    0.6610    0.0000 C   0  0  0  0  0  0  0  0  0  0  0  0
   -1.1442    1.2012    0.0000 O   0  0  0  0  0  0  0  0  0  0  0  0
  1  2  2  0
  2  3  1  0
  3  4  1  0
  4  5  1  0
  5  6  2  0
  6  7  1  0
  7  8  2  0
  8  9  1  0
  9 10  2  0
 10 11  1  0
 11  2  1  0
 10  5  1  0
M  END
> <Identifier>
3,4-Dihydrocoumarin

> <SkinReaction>
1

$$$$

     RDKit          2D

 12 12  0  0  0  0  0  0  0  0999 V2000
   -1.0191   -2.5364    0.0000 C   0  0  0  0  0  0  0  0  0  0  0  0
   -1.2241   -1.0505    0.0000 C   0  0  0  0  0  0  0  0  0  0  0  0
   -2.6519   -1.5104    0.0000 C   0  0  0  0  0  0  0  0  0  0  0  0
   -1.9250    0.2757    0.0000 C   0  0  0  0  0  0  0  0  0  0  0  0
   -1.1269    1.5457    0.0000 C   0  0  0  0  0  0  0  0  0  0  0  0
   -1.8278    2.8719    0.0000 N   0  0  0  0  0  0  0  0  0  0  0  0
    0.3720    1.4896    0.0000 C   0  0  0  0  0  0  0  0  0  0  0  0
    1.0729    0.1634    0.0000 C   0  0  0  0  0  0  0  0  0  0  0  0
    2.2572    1.0839    0.0000 C   0  0  0  0  0  0  0  0  0  0  0  0
    2.1851   -0.8431    0.0000 C   0  0  0  0  0  0  0  0  0  0  0  0
    3.6128   -0.3832    0.0000 N   0  0  0  0  0  0  0  0  0  0  0  0
    0.2748   -1.1066    0.0000 C   0  0  0  0  0  0  0  0  0  0  0  0
  1  2  1  0
  2  3  1  0
  2  4  1  0
  4  5  1  0
  5  6  1  0
  5  7  1  0
  7  8  1  0
  8  9  1  0
  8 10  1  0
 10 11  1  0
  8 12  1  0
 12  2  1  0
M  END
> <Identifier>
3-Aminomethyl- 3,5,5-trimethylcyclohexyl amine

> <SkinReaction>
1

$$$$

     RDKit          2D

  8  8  0  0  0  0  0  0  0  0999 V2000
   -2.5981   -1.1250    0.0000 N   0  0  0  0  0  0  0  0  0  0  0  0
   -1.2990   -0.3750    0.0000 C   0  0  0  0  0  0  0  0  0  0  0  0
   -1.2990    1.1250    0.0000 C   0  0  0  0  0  0  0  0  0  0  0  0
    0.0000    1.8750    0.0000 C   0  0  0  0  0  0  0  0  0  0  0  0
    1.2990    1.1250    0.0000 C   0  0  0  0  0  0  0  0  0  0  0  0
    1.2990   -0.3750    0.0000 C   0  0  0  0  0  0  0  0  0  0  0  0
    2.5981   -1.1250    0.0000 O   0  0  0  0  0  0  0  0  0  0  0  0
   -0.0000   -1.1250    0.0000 C   0  0  0  0  0  0  0  0  0  0  0  0
  1  2  1  0
  2  3  2  0
  3  4  1  0
  4  5  2  0
  5  6  1  0
  6  7  1  0
  6  8  2  0
  8  2  1  0
M  END
> <Identifier>
3-Aminophenol

> <SkinReaction>
1

$$$$

     RDKit          2D

 11 11  0  0  0  0  0  0  0  0999 V2000
   -3.3929    1.0557    0.0000 O   0  0  0  0  0  0  0  0  0  0  0  0
   -2.4629   -0.1212    0.0000 C   0  0  0  0  0  0  0  0  0  0  0  0
   -3.0172   -1.5150    0.0000 Cl  0  0  0  0  0  0  0  0  0  0  0  0
   -0.9787    0.0957    0.0000 C   0  0  0  0  0  0  0  0  0  0  0  0
   -0.4244    1.4895    0.0000 C   0  0  0  0  0  0  0  0  0  0  0  0
    1.0599    1.7064    0.0000 C   0  0  0  0  0  0  0  0  0  0  0  0
    1.9898    0.5295    0.0000 C   0  0  0  0  0  0  0  0  0  0  0  0
    3.4740    0.7463    0.0000 F   0  0  0  0  0  0  0  0  0  0  0  0
    1.4355   -0.8644    0.0000 C   0  0  0  0  0  0  0  0  0  0  0  0
    2.3655   -2.0413    0.0000 Cl  0  0  0  0  0  0  0  0  0  0  0  0
   -0.0487   -1.0813    0.0000 C   0  0  0  0  0  0  0  0  0  0  0  0
  1  2  2  0
  2  3  1  0
  2  4  1  0
  4  5  2  0
  5  6  1  0
  6  7  2  0
  7  8  1  0
  7  9  1  0
  9 10  1  0
  9 11  2  0
 11  4  1  0
M  END
> <Identifier>
3-Chloro-4-fluorobenzoylchloride

> <SkinReaction>
1

$$$$

     RDKit          2D

 18 18  0  0  0  0  0  0  0  0999 V2000
   -6.8675    1.3579    0.0000 C   0  0  0  0  0  0  0  0  0  0  0  0
   -5.7445    0.3635    0.0000 C   0  0  0  0  0  0  0  0  0  0  0  0
   -4.3218    0.8388    0.0000 O   0  0  0  0  0  0  0  0  0  0  0  0
   -3.1989   -0.1556    0.0000 C   0  0  0  0  0  0  0  0  0  0  0  0
   -3.4986   -1.6254    0.0000 O   0  0  0  0  0  0  0  0  0  0  0  0
   -1.7762    0.3197    0.0000 C   0  0  0  0  0  0  0  0  0  0  0  0
   -0.6532   -0.6748    0.0000 C   0  0  0  0  0  0  0  0  0  0  0  0
   -0.9529   -2.1445    0.0000 O   0  0  0  0  0  0  0  0  0  0  0  0
    0.7695   -0.1994    0.0000 C   0  0  0  0  0  0  0  0  0  0  0  0
    1.0692    1.2703    0.0000 C   0  0  0  0  0  0  0  0  0  0  0  0
    2.4919    1.7456    0.0000 C   0  0  0  0  0  0  0  0  0  0  0  0
    2.7917    3.2154    0.0000 C   0  0  0  0  0  0  0  0  0  0  0  0
    3.6149    0.7512    0.0000 C   0  0  0  0  0  0  0  0  0  0  0  0
    5.0376    1.2265    0.0000 C   0  0  0  0  0  0  0  0  0  0  0  0
    3.3152   -0.7186    0.0000 C   0  0  0  0  0  0  0  0  0  0  0  0
    4.4382   -1.7130    0.0000 C   0  0  0  0  0  0  0  0  0  0  0  0
    1.8925   -1.1939    0.0000 C   0  0  0  0  0  0  0  0  0  0  0  0
    1.5928   -2.6636    0.0000 C   0  0  0  0  0  0  0  0  0  0  0  0
  1  2  1  0
  2  3  1  0
  3  4  1  0
  4  5  2  0
  4  6  1  0
  6  7  1  0
  7  8  2  0
  7  9  1  0
  9 10  2  0
 10 11  1  0
 11 12  1  0
 11 13  2  0
 13 14  1  0
 13 15  1  0
 15 16  1  0
 15 17  2  0
 17 18  1  0
 17  9  1  0
M  END
> <Identifier>
3-Ethoxy-1-(2',3',4',5'-tetramethylphenyl)propane-1,3-dione

> <SkinReaction>
1

$$$$

     RDKit          2D

 14 15  0  0  0  0  0  0  0  0999 V2000
   -0.4931    2.7145    0.0000 C   0  0  0  0  0  0  0  0  0  0  0  0
   -1.0957    1.3409    0.0000 C   0  0  0  0  0  0  0  0  0  0  0  0
   -2.5612    1.0211    0.0000 N   0  0  0  0  0  0  0  0  0  0  0  0
   -2.7099   -0.4715    0.0000 S   0  0  0  0  0  0  0  0  0  0  0  0
   -3.1657   -1.9006    0.0000 O   0  0  0  0  0  0  0  0  0  0  0  0
   -4.1788   -0.1677    0.0000 O   0  0  0  0  0  0  0  0  0  0  0  0
   -1.3363   -1.0742    0.0000 N   0  0  0  0  0  0  0  0  0  0  0  0
   -0.3387    0.0460    0.0000 C   0  0  0  0  0  0  0  0  0  0  0  0
    1.1539   -0.1027    0.0000 C   0  0  0  0  0  0  0  0  0  0  0  0
    1.7715   -1.4697    0.0000 C   0  0  0  0  0  0  0  0  0  0  0  0
    3.2641   -1.6184    0.0000 C   0  0  0  0  0  0  0  0  0  0  0  0
    4.1392   -0.4001    0.0000 C   0  0  0  0  0  0  0  0  0  0  0  0
    3.5216    0.9669    0.0000 C   0  0  0  0  0  0  0  0  0  0  0  0
    2.0290    1.1156    0.0000 C   0  0  0  0  0  0  0  0  0  0  0  0
  1  2  2  0
  2  3  1  0
  3  4  1  0
  4  5  2  0
  4  6  2  0
  4  7  1  0
  7  8  2  0
  8  9  1  0
  9 10  2  0
 10 11  1  0
 11 12  2  0
 12 13  1  0
 13 14  2  0
  8  2  1  0
 14  9  1  0
M  END
> <Identifier>
3-Methyl-4-phenyl-1,2,5-thiadiazole-1,1-dioxide

> <SkinReaction>
1

$$$$

     RDKit          2D

 13 13  0  0  0  0  0  0  0  0999 V2000
   -4.9410   -0.3520    0.0000 C   0  0  0  0  0  0  0  0  0  0  0  0
   -3.5856    0.2906    0.0000 C   0  0  0  0  0  0  0  0  0  0  0  0
   -2.3514   -0.5619    0.0000 C   0  0  0  0  0  0  0  0  0  0  0  0
   -0.9960    0.0807    0.0000 C   0  0  0  0  0  0  0  0  0  0  0  0
   -0.8748    1.5758    0.0000 C   0  0  0  0  0  0  0  0  0  0  0  0
    0.4806    2.2184    0.0000 C   0  0  0  0  0  0  0  0  0  0  0  0
    1.7148    1.3659    0.0000 C   0  0  0  0  0  0  0  0  0  0  0  0
    3.0701    2.0086    0.0000 O   0  0  0  0  0  0  0  0  0  0  0  0
    1.5936   -0.1292    0.0000 C   0  0  0  0  0  0  0  0  0  0  0  0
    2.8278   -0.9816    0.0000 O   0  0  0  0  0  0  0  0  0  0  0  0
    2.7066   -2.4767    0.0000 C   0  0  0  0  0  0  0  0  0  0  0  0
    0.2382   -0.7718    0.0000 C   0  0  0  0  0  0  0  0  0  0  0  0
    0.1170   -2.2669    0.0000 C   0  0  0  0  0  0  0  0  0  0  0  0
  1  2  1  0
  2  3  2  3
  3  4  1  0
  4  5  2  0
  5  6  1  0
  6  7  2  0
  7  8  1  0
  7  9  1  0
  9 10  1  0
 10 11  1  0
  9 12  2  0
 12 13  1  0
 12  4  1  0
M  END
> <Identifier>
3-Methylisoeugenol

> <SkinReaction>
1

$$$$

     RDKit          2D

  8  8  0  0  0  0  0  0  0  0999 V2000
   -2.5981   -1.1250    0.0000 N   0  0  0  0  0  0  0  0  0  0  0  0
   -1.2990   -0.3750    0.0000 C   0  0  0  0  0  0  0  0  0  0  0  0
   -1.2990    1.1250    0.0000 C   0  0  0  0  0  0  0  0  0  0  0  0
    0.0000    1.8750    0.0000 C   0  0  0  0  0  0  0  0  0  0  0  0
    1.2990    1.1250    0.0000 C   0  0  0  0  0  0  0  0  0  0  0  0
    1.2990   -0.3750    0.0000 C   0  0  0  0  0  0  0  0  0  0  0  0
    2.5981   -1.1250    0.0000 N   0  0  0  0  0  0  0  0  0  0  0  0
   -0.0000   -1.1250    0.0000 C   0  0  0  0  0  0  0  0  0  0  0  0
  1  2  1  0
  2  3  2  0
  3  4  1  0
  4  5  2  0
  5  6  1  0
  6  7  1  0
  6  8  2  0
  8  2  1  0
M  END
> <Identifier>
3-Phenylene-diamine

> <SkinReaction>
1

$$$$

     RDKit          2D

 13 14  0  0  0  0  0  0  0  0999 V2000
   -4.8994    0.8143    0.0000 C   0  0  0  0  0  0  0  0  0  0  0  0
   -3.6171    0.0360    0.0000 C   0  0  0  0  0  0  0  0  0  0  0  0
   -2.3019    0.7574    0.0000 C   0  0  0  0  0  0  0  0  0  0  0  0
   -1.0196   -0.0209    0.0000 C   0  0  0  0  0  0  0  0  0  0  0  0
   -0.8956   -1.5158    0.0000 O   0  0  0  0  0  0  0  0  0  0  0  0
    0.5645   -1.8597    0.0000 C   0  0  0  0  0  0  0  0  0  0  0  0
    1.1444   -3.2431    0.0000 O   0  0  0  0  0  0  0  0  0  0  0  0
    1.3428   -0.5774    0.0000 C   0  0  0  0  0  0  0  0  0  0  0  0
    2.8165   -0.2978    0.0000 C   0  0  0  0  0  0  0  0  0  0  0  0
    3.3111    1.1183    0.0000 C   0  0  0  0  0  0  0  0  0  0  0  0
    2.3321    2.2547    0.0000 C   0  0  0  0  0  0  0  0  0  0  0  0
    0.8584    1.9751    0.0000 C   0  0  0  0  0  0  0  0  0  0  0  0
    0.3637    0.5590    0.0000 C   0  0  0  0  0  0  0  0  0  0  0  0
  1  2  1  0
  2  3  1  0
  3  4  2  3
  4  5  1  0
  5  6  1  0
  6  7  2  0
  6  8  1  0
  8  9  2  0
  9 10  1  0
 10 11  2  0
 11 12  1  0
 12 13  2  0
 13  4  1  0
 13  8  1  0
M  END
> <Identifier>
3-Propylidene phthalide

> <SkinReaction>
1

$$$$

     RDKit          2D

 13 13  0  0  0  0  0  0  0  0999 V2000
   -5.2769    1.1796    0.0000 C   0  0  0  0  0  0  0  0  0  0  0  0
   -4.2400    0.0957    0.0000 C   0  0  0  0  0  0  0  0  0  0  0  0
   -2.7828    0.4517    0.0000 O   0  0  0  0  0  0  0  0  0  0  0  0
   -1.7460   -0.6323    0.0000 C   0  0  0  0  0  0  0  0  0  0  0  0
   -2.1663   -2.0722    0.0000 O   0  0  0  0  0  0  0  0  0  0  0  0
   -0.2888   -0.2763    0.0000 C   0  0  0  0  0  0  0  0  0  0  0  0
    0.1314    1.1636    0.0000 C   0  0  0  0  0  0  0  0  0  0  0  0
    1.5886    1.5196    0.0000 C   0  0  0  0  0  0  0  0  0  0  0  0
    2.6255    0.4357    0.0000 C   0  0  0  0  0  0  0  0  0  0  0  0
    4.0826    0.7917    0.0000 C   0  0  0  0  0  0  0  0  0  0  0  0
    5.1195   -0.2923    0.0000 Br  0  0  0  0  0  0  0  0  0  0  0  0
    2.2052   -1.0042    0.0000 C   0  0  0  0  0  0  0  0  0  0  0  0
    0.7480   -1.3602    0.0000 C   0  0  0  0  0  0  0  0  0  0  0  0
  1  2  1  0
  2  3  1  0
  3  4  1  0
  4  5  2  0
  4  6  1  0
  6  7  2  0
  7  8  1  0
  8  9  2  0
  9 10  1  0
 10 11  1  0
  9 12  1  0
 12 13  2  0
 13  6  1  0
M  END
> <Identifier>
4-(Bromomethyl)- benzoic acid ethyl ester

> <SkinReaction>
1

$$$$

     RDKit          2D

 18 18  0  0  0  0  0  0  0  0999 V2000
    1.6978   -2.6206    0.0000 C   0  0  0  0  0  0  0  0  0  0  0  0
    0.2372   -2.2790    0.0000 C   0  0  0  0  0  0  0  0  0  0  0  0
   -0.1972   -0.8433    0.0000 N   0  0  0  0  0  0  0  0  0  0  0  0
    0.8289    0.2508    0.0000 C   0  0  0  0  0  0  0  0  0  0  0  0
    2.2895   -0.0908    0.0000 C   0  0  0  0  0  0  0  0  0  0  0  0
    3.3156    1.0033    0.0000 N   0  0  0  0  0  0  0  0  0  0  0  0
    4.7762    0.6616    0.0000 S   0  0  0  0  0  0  0  0  0  0  0  0
    6.2368    0.3200    0.0000 C   0  0  0  0  0  0  0  0  0  0  0  0
    4.4346   -0.7989    0.0000 O   0  0  0  0  0  0  0  0  0  0  0  0
    5.1178    2.1222    0.0000 O   0  0  0  0  0  0  0  0  0  0  0  0
   -1.6578   -0.5016    0.0000 C   0  0  0  0  0  0  0  0  0  0  0  0
   -2.6840   -1.5957    0.0000 C   0  0  0  0  0  0  0  0  0  0  0  0
   -4.1445   -1.2541    0.0000 C   0  0  0  0  0  0  0  0  0  0  0  0
   -4.5790    0.1816    0.0000 C   0  0  0  0  0  0  0  0  0  0  0  0
   -6.0396    0.5232    0.0000 N   0  0  0  0  0  0  0  0  0  0  0  0
   -3.5528    1.2757    0.0000 C   0  0  0  0  0  0  0  0  0  0  0  0
   -3.9873    2.7114    0.0000 C   0  0  0  0  0  0  0  0  0  0  0  0
   -2.0922    0.9341    0.0000 C   0  0  0  0  0  0  0  0  0  0  0  0
  1  2  1  0
  2  3  1  0
  3  4  1  0
  4  5  1  0
  5  6  1  0
  6  7  1  0
  7  8  1  0
  7  9  2  0
  7 10  2  0
  3 11  1  0
 11 12  2  0
 12 13  1  0
 13 14  2  0
 14 15  1  0
 14 16  1  0
 16 17  1  0
 16 18  2  0
 18 11  1  0
M  END
> <Identifier>
4-(N-Ethyl-N-2- methan-sulfamido- ethyl)-2-methyl- 1,4,-phenylene-diamine

> <SkinReaction>
1

$$$$

     RDKit          2D

 15 15  0  0  0  0  0  0  0  0999 V2000
   -3.4033    1.3687    0.0000 C   0  0  0  0  0  0  0  0  0  0  0  0
   -4.3539    0.2084    0.0000 C   0  0  0  0  0  0  0  0  0  0  0  0
   -5.3045   -0.9519    0.0000 C   0  0  0  0  0  0  0  0  0  0  0  0
   -5.5142    1.1590    0.0000 O   0  0  0  0  0  0  0  0  0  0  0  0
   -3.1936   -0.7422    0.0000 C   0  0  0  0  0  0  0  0  0  0  0  0
   -1.7902   -0.2127    0.0000 C   0  0  0  0  0  0  0  0  0  0  0  0
   -0.6299   -1.1633    0.0000 C   0  0  0  0  0  0  0  0  0  0  0  0
    0.7735   -0.6338    0.0000 C   0  0  0  0  0  0  0  0  0  0  0  0
    1.0167    0.8464    0.0000 C   0  0  0  0  0  0  0  0  0  0  0  0
    2.4201    1.3760    0.0000 C   0  0  0  0  0  0  0  0  0  0  0  0
    3.5804    0.4253    0.0000 C   0  0  0  0  0  0  0  0  0  0  0  0
    4.9838    0.9549    0.0000 C   0  0  0  0  0  0  0  0  0  0  0  0
    6.1441    0.0042    0.0000 O   0  0  0  0  0  0  0  0  0  0  0  0
    3.3373   -1.0548    0.0000 C   0  0  0  0  0  0  0  0  0  0  0  0
    1.9338   -1.5844    0.0000 C   0  0  0  0  0  0  0  0  0  0  0  0
  1  2  1  0
  2  3  1  0
  2  4  1  0
  2  5  1  0
  5  6  1  0
  6  7  1  0
  7  8  1  0
  8  9  2  0
  9 10  1  0
 10 11  1  0
 11 12  1  0
 12 13  2  0
 11 14  1  0
 14 15  1  0
 15  8  1  0
M  END
> <Identifier>
4(or3)-(4-hydroxy-4-methylphenyl)-3-cyclohexen-1-carboxyaldehyde

> <SkinReaction>
1

$$$$

     RDKit          2D

 18 19  0  0  0  0  0  0  0  0999 V2000
    0.7172    2.0241    0.0000 O   0  0  0  0  0  0  0  0  0  0  0  0
    0.1940    0.6183    0.0000 C   0  0  0  0  0  0  0  0  0  0  0  0
    1.1500   -0.5376    0.0000 C   0  0  0  0  0  0  0  0  0  0  0  0
    0.6269   -1.9435    0.0000 O   0  0  0  0  0  0  0  0  0  0  0  0
    2.6290   -0.2878    0.0000 C   0  0  0  0  0  0  0  0  0  0  0  0
    3.5849   -1.4437    0.0000 C   0  0  0  0  0  0  0  0  0  0  0  0
    5.0640   -1.1938    0.0000 C   0  0  0  0  0  0  0  0  0  0  0  0
    5.5871    0.2120    0.0000 C   0  0  0  0  0  0  0  0  0  0  0  0
    4.6312    1.3679    0.0000 C   0  0  0  0  0  0  0  0  0  0  0  0
    3.1521    1.1181    0.0000 C   0  0  0  0  0  0  0  0  0  0  0  0
   -1.2850    0.3684    0.0000 C   0  0  0  0  0  0  0  0  0  0  0  0
   -2.2409    1.5244    0.0000 C   0  0  0  0  0  0  0  0  0  0  0  0
   -3.7200    1.2745    0.0000 C   0  0  0  0  0  0  0  0  0  0  0  0
   -4.2431   -0.1313    0.0000 C   0  0  0  0  0  0  0  0  0  0  0  0
   -5.2155   -1.2734    0.0000 Br  0  0  0  0  0  0  0  0  0  0  0  0
   -5.5367    0.6280    0.0000 Br  0  0  0  0  0  0  0  0  0  0  0  0
   -3.2872   -1.2873    0.0000 C   0  0  0  0  0  0  0  0  0  0  0  0
   -1.8081   -1.0374    0.0000 C   0  0  0  0  0  0  0  0  0  0  0  0
  1  2  2  0
  2  3  1  0
  3  4  2  0
  3  5  1  0
  5  6  2  0
  6  7  1  0
  7  8  2  0
  8  9  1  0
  9 10  2  0
  2 11  1  0
 11 12  2  0
 12 13  1  0
 13 14  1  0
 14 15  1  0
 14 16  1  0
 14 17  1  0
 17 18  2  0
 10  5  1  0
 18 11  1  0
M  END
> <Identifier>
4,4-Dibromobenzil

> <SkinReaction>
1

$$$$

     RDKit          2D

 13 13  0  0  0  0  0  0  0  0999 V2000
   -5.2137    0.1740    0.0000 N   0  0  0  0  0  0  0  0  0  0  0  0
   -3.8752   -0.5032    0.0000 C   0  0  0  0  0  0  0  0  0  0  0  0
   -2.5368   -1.1803    0.0000 S   0  0  0  0  0  0  0  0  0  0  0  0
   -1.2811   -0.3597    0.0000 C   0  0  0  0  0  0  0  0  0  0  0  0
   -1.3639    1.1380    0.0000 C   0  0  0  0  0  0  0  0  0  0  0  0
   -0.1083    1.9585    0.0000 C   0  0  0  0  0  0  0  0  0  0  0  0
    1.2302    1.2814    0.0000 C   0  0  0  0  0  0  0  0  0  0  0  0
    2.4858    2.1020    0.0000 N   0  0  0  0  0  0  0  0  0  0  0  0
    1.3130   -0.2163    0.0000 C   0  0  0  0  0  0  0  0  0  0  0  0
    2.6514   -0.8934    0.0000 N   0  0  0  0  0  4  0  0  0  0  0  0
    3.9071   -0.0729    0.0000 O   0  0  0  0  0  0  0  0  0  0  0  0
    2.7343   -2.3912    0.0000 O   0  0  0  0  0  1  0  0  0  0  0  0
    0.0573   -1.0369    0.0000 C   0  0  0  0  0  0  0  0  0  0  0  0
  1  2  3  0
  2  3  1  0
  3  4  1  0
  4  5  2  0
  5  6  1  0
  6  7  2  0
  7  8  1  0
  7  9  1  0
  9 10  1  0
 10 11  2  0
 10 12  1  0
  9 13  2  0
 13  4  1  0
M  CHG  2  10   1  12  -1
M  END
> <Identifier>
4-Amino-3- nitrophenyl thiocyanate

> <SkinReaction>
1

$$$$

     RDKit          2D

 17 18  0  0  0  0  0  0  0  0999 V2000
   -6.4333   -0.2091    0.0000 C   0  0  0  0  0  0  0  0  0  0  0  0
   -5.0161    0.2824    0.0000 C   0  0  0  0  0  0  0  0  0  0  0  0
   -4.7331    1.7555    0.0000 Br  0  0  0  0  0  0  0  0  0  0  0  0
   -3.8819   -0.6992    0.0000 C   0  0  0  0  0  0  0  0  0  0  0  0
   -2.4647   -0.2077    0.0000 C   0  0  0  0  0  0  0  0  0  0  0  0
   -1.3304   -1.1893    0.0000 C   0  0  0  0  0  0  0  0  0  0  0  0
    0.0868   -0.6978    0.0000 N   0  0  0  0  0  0  0  0  0  0  0  0
    1.3174   -1.5555    0.0000 C   0  0  0  0  0  0  0  0  0  0  0  0
    1.3469   -3.0552    0.0000 O   0  0  0  0  0  0  0  0  0  0  0  0
    2.5133   -0.6501    0.0000 C   0  0  0  0  0  0  0  0  0  0  0  0
    3.9864   -0.9331    0.0000 C   0  0  0  0  0  0  0  0  0  0  0  0
    4.9680    0.2012    0.0000 C   0  0  0  0  0  0  0  0  0  0  0  0
    4.4765    1.6184    0.0000 C   0  0  0  0  0  0  0  0  0  0  0  0
    3.0034    1.9013    0.0000 C   0  0  0  0  0  0  0  0  0  0  0  0
    2.0219    0.7671    0.0000 C   0  0  0  0  0  0  0  0  0  0  0  0
    0.5221    0.7376    0.0000 C   0  0  0  0  0  0  0  0  0  0  0  0
   -0.3832    1.9336    0.0000 O   0  0  0  0  0  0  0  0  0  0  0  0
  1  2  1  0
  2  3  1  0
  2  4  1  0
  4  5  1  0
  5  6  1  0
  6  7  1  0
  7  8  1  0
  8  9  2  0
  8 10  1  0
 10 11  2  0
 11 12  1  0
 12 13  2  0
 13 14  1  0
 14 15  2  0
 15 16  1  0
 16 17  2  0
 16  7  1  0
 15 10  1  0
M  END
> <Identifier>
4-Bromo-1- phthalimidopentane

> <SkinReaction>
1

$$$$

     RDKit          2D

 12 13  0  0  0  0  0  0  0  0999 V2000
   -1.4239   -2.6758    0.0000 Cl  0  0  0  0  0  0  0  0  0  0  0  0
   -1.4757   -1.1767    0.0000 C   0  0  0  0  0  0  0  0  0  0  0  0
   -2.7999   -0.4721    0.0000 N   0  0  0  0  0  0  0  0  0  0  0  0
   -2.8518    1.0270    0.0000 C   0  0  0  0  0  0  0  0  0  0  0  0
   -1.5795    1.8215    0.0000 N   0  0  0  0  0  0  0  0  0  0  0  0
   -0.2553    1.1168    0.0000 C   0  0  0  0  0  0  0  0  0  0  0  0
    1.0170    1.9113    0.0000 C   0  0  0  0  0  0  0  0  0  0  0  0
    2.3412    1.2067    0.0000 C   0  0  0  0  0  0  0  0  0  0  0  0
    2.3931   -0.2924    0.0000 C   0  0  0  0  0  0  0  0  0  0  0  0
    3.7173   -0.9971    0.0000 I   0  0  0  0  0  0  0  0  0  0  0  0
    1.1208   -1.0869    0.0000 C   0  0  0  0  0  0  0  0  0  0  0  0
   -0.2034   -0.3823    0.0000 C   0  0  0  0  0  0  0  0  0  0  0  0
  1  2  1  0
  2  3  2  0
  3  4  1  0
  4  5  2  0
  5  6  1  0
  6  7  2  0
  7  8  1  0
  8  9  2  0
  9 10  1  0
  9 11  1  0
 11 12  2  0
 12  2  1  0
 12  6  1  0
M  END
> <Identifier>
4-Chloro-6- iodoquinazoline

> <SkinReaction>
1

$$$$

     RDKit          2D

 17 18  0  0  0  0  0  0  0  0999 V2000
   -6.4333   -0.2091    0.0000 C   0  0  0  0  0  0  0  0  0  0  0  0
   -5.0161    0.2824    0.0000 C   0  0  0  0  0  0  0  0  0  0  0  0
   -4.7331    1.7555    0.0000 I   0  0  0  0  0  0  0  0  0  0  0  0
   -3.8819   -0.6992    0.0000 C   0  0  0  0  0  0  0  0  0  0  0  0
   -2.4647   -0.2077    0.0000 C   0  0  0  0  0  0  0  0  0  0  0  0
   -1.3304   -1.1893    0.0000 C   0  0  0  0  0  0  0  0  0  0  0  0
    0.0868   -0.6978    0.0000 N   0  0  0  0  0  0  0  0  0  0  0  0
    1.3174   -1.5555    0.0000 C   0  0  0  0  0  0  0  0  0  0  0  0
    1.3469   -3.0552    0.0000 O   0  0  0  0  0  0  0  0  0  0  0  0
    2.5133   -0.6501    0.0000 C   0  0  0  0  0  0  0  0  0  0  0  0
    3.9864   -0.9331    0.0000 C   0  0  0  0  0  0  0  0  0  0  0  0
    4.9680    0.2012    0.0000 C   0  0  0  0  0  0  0  0  0  0  0  0
    4.4765    1.6184    0.0000 C   0  0  0  0  0  0  0  0  0  0  0  0
    3.0034    1.9013    0.0000 C   0  0  0  0  0  0  0  0  0  0  0  0
    2.0219    0.7671    0.0000 C   0  0  0  0  0  0  0  0  0  0  0  0
    0.5221    0.7376    0.0000 C   0  0  0  0  0  0  0  0  0  0  0  0
   -0.3832    1.9336    0.0000 O   0  0  0  0  0  0  0  0  0  0  0  0
  1  2  1  0
  2  3  1  0
  2  4  1  0
  4  5  1  0
  5  6  1  0
  6  7  1  0
  7  8  1  0
  8  9  2  0
  8 10  1  0
 10 11  2  0
 11 12  1  0
 12 13  2  0
 13 14  1  0
 14 15  2  0
 15 16  1  0
 16 17  2  0
 16  7  1  0
 15 10  1  0
M  END
> <Identifier>
4-Iodo-1-phthalimido-pentane

> <SkinReaction>
1

$$$$

     RDKit          2D

 11 11  0  0  0  0  0  0  0  0999 V2000
    2.3655   -2.0413    0.0000 C   0  0  0  0  0  0  0  0  0  0  0  0
    1.4355   -0.8644    0.0000 C   0  0  0  0  0  0  0  0  0  0  0  0
   -0.0487   -1.0813    0.0000 C   0  0  0  0  0  0  0  0  0  0  0  0
   -0.9787    0.0957    0.0000 C   0  0  0  0  0  0  0  0  0  0  0  0
   -2.4629   -0.1212    0.0000 C   0  0  0  0  0  0  0  0  0  0  0  0
   -3.0172   -1.5150    0.0000 C   0  0  0  0  0  0  0  0  0  0  0  0
   -3.3929    1.0557    0.0000 C   0  0  0  0  0  0  0  0  0  0  0  0
   -0.4244    1.4895    0.0000 C   0  0  0  0  0  0  0  0  0  0  0  0
    1.0599    1.7064    0.0000 C   0  0  0  0  0  0  0  0  0  0  0  0
    1.9898    0.5295    0.0000 C   0  0  0  0  0  0  0  0  0  0  0  0
    3.4740    0.7463    0.0000 C   0  0  0  0  0  0  0  0  0  0  0  0
  1  2  2  0
  2  3  1  0
  3  4  1  0
  4  5  1  0
  5  6  2  0
  5  7  1  0
  4  8  1  0
  8  9  1  0
  9 10  2  0
 10 11  1  0
 10  2  1  0
M  END
> <Identifier>
4-isopropenyl-1-methyl-6-methylene-cyclohexene

> <SkinReaction>
1

$$$$

     RDKit          2D

 11 11  0  0  0  0  0  0  0  0999 V2000
   -3.2784   -1.5061    0.0000 O   0  0  0  0  0  0  0  0  0  0  0  0
   -2.6580   -0.1404    0.0000 N   0  0  0  0  0  4  0  0  0  0  0  0
   -3.5305    1.0797    0.0000 O   0  0  0  0  0  1  0  0  0  0  0  0
   -1.1651    0.0051    0.0000 C   0  0  0  0  0  0  0  0  0  0  0  0
   -0.5446    1.3708    0.0000 C   0  0  0  0  0  0  0  0  0  0  0  0
    0.9483    1.5163    0.0000 C   0  0  0  0  0  0  0  0  0  0  0  0
    1.8208    0.2961    0.0000 C   0  0  0  0  0  0  0  0  0  0  0  0
    3.3137    0.4417    0.0000 C   0  0  0  0  0  0  0  0  0  0  0  0
    4.1862   -0.7785    0.0000 Br  0  0  0  0  0  0  0  0  0  0  0  0
    1.2003   -1.0695    0.0000 C   0  0  0  0  0  0  0  0  0  0  0  0
   -0.2926   -1.2151    0.0000 C   0  0  0  0  0  0  0  0  0  0  0  0
  1  2  2  0
  2  3  1  0
  2  4  1  0
  4  5  2  0
  5  6  1  0
  6  7  2  0
  7  8  1  0
  8  9  1  0
  7 10  1  0
 10 11  2  0
 11  4  1  0
M  CHG  2   2   1   3  -1
M  END
> <Identifier>
4-Nitrobenzyl bromide

> <SkinReaction>
1

$$$$

     RDKit          2D

  9  9  0  0  0  0  0  0  0  0999 V2000
   -2.2780   -1.6317    0.0000 C   0  0  0  0  0  0  0  0  0  0  0  0
   -1.0645   -0.7500    0.0000 C   0  0  0  0  0  0  0  0  0  0  0  0
    0.3621   -1.2135    0.0000 C   0  0  0  0  0  0  0  0  0  0  0  0
    1.2438    0.0000    0.0000 C   0  0  0  0  0  0  0  0  0  0  0  0
    2.3585    1.0037    0.0000 C   0  0  0  0  0  0  0  0  0  0  0  0
    2.3585   -1.0037    0.0000 C   0  0  0  0  0  0  0  0  0  0  0  0
    0.3621    1.2135    0.0000 O   0  0  0  0  0  0  0  0  0  0  0  0
   -1.0645    0.7500    0.0000 C   0  0  0  0  0  0  0  0  0  0  0  0
   -2.2780    1.6317    0.0000 O   0  0  0  0  0  0  0  0  0  0  0  0
  1  2  2  0
  2  3  1  0
  3  4  1  0
  4  5  1  0
  4  6  1  0
  4  7  1  0
  7  8  1  0
  8  9  2  0
  8  2  1  0
M  END
> <Identifier>
5,5-Dimethyl-3-methylenedihydro-2(3H)-furanone

> <SkinReaction>
1

$$$$

     RDKit          2D

 20 21  0  0  0  0  0  0  0  0999 V2000
   -4.5693   -2.1701    0.0000 O   0  0  0  0  0  0  0  0  0  0  0  0
   -4.7004   -0.6758    0.0000 C   0  0  0  0  0  0  0  0  0  0  0  0
   -6.0600   -0.0422    0.0000 O   0  0  0  0  0  0  0  0  0  0  0  0
   -3.4719    0.1848    0.0000 C   0  0  0  0  0  0  0  0  0  0  0  0
   -3.6030    1.6791    0.0000 C   0  0  0  0  0  0  0  0  0  0  0  0
   -2.3744    2.5397    0.0000 C   0  0  0  0  0  0  0  0  0  0  0  0
   -1.0148    1.9061    0.0000 C   0  0  0  0  0  0  0  0  0  0  0  0
   -0.8837    0.4119    0.0000 C   0  0  0  0  0  0  0  0  0  0  0  0
    0.4759   -0.2218    0.0000 C   0  0  0  0  0  0  0  0  0  0  0  0
    0.6069   -1.7160    0.0000 C   0  0  0  0  0  0  0  0  0  0  0  0
    1.9665   -2.3497    0.0000 C   0  0  0  0  0  0  0  0  0  0  0  0
    2.0976   -3.8439    0.0000 Cl  0  0  0  0  0  0  0  0  0  0  0  0
    3.1951   -1.4890    0.0000 C   0  0  0  0  0  0  0  0  0  0  0  0
    3.0640    0.0052    0.0000 C   0  0  0  0  0  0  0  0  0  0  0  0
    4.2925    0.8659    0.0000 N   0  0  0  0  0  4  0  0  0  0  0  0
    4.1615    2.3602    0.0000 O   0  0  0  0  0  0  0  0  0  0  0  0
    5.6521    0.2323    0.0000 O   0  0  0  0  0  1  0  0  0  0  0  0
    1.7044    0.6389    0.0000 C   0  0  0  0  0  0  0  0  0  0  0  0
    1.5733    2.1331    0.0000 O   0  0  0  0  0  0  0  0  0  0  0  0
   -2.1123   -0.4488    0.0000 C   0  0  0  0  0  0  0  0  0  0  0  0
  1  2  2  0
  2  3  1  0
  2  4  1  0
  4  5  2  0
  5  6  1  0
  6  7  2  0
  7  8  1  0
  8  9  1  0
  9 10  2  0
 10 11  1  0
 11 12  1  0
 11 13  2  0
 13 14  1  0
 14 15  1  0
 15 16  2  0
 15 17  1  0
 14 18  2  0
 18 19  1  0
  8 20  2  0
 20  4  1  0
 18  9  1  0
M  CHG  2  15   1  17  -1
M  END
> <Identifier>
5'-Chloro-2'- hydroxy-3'-nitro- [1,1'-biphenyl]-3- carboxylic acid

> <SkinReaction>
1

$$$$

     RDKit          2D

 19 20  0  0  0  0  0  0  0  0999 V2000
   -5.4243    0.1178    0.0000 C   0  0  0  0  0  0  0  0  0  0  0  0
   -4.2212   -0.7780    0.0000 O   0  0  0  0  0  0  0  0  0  0  0  0
   -2.8438   -0.1840    0.0000 C   0  0  0  0  0  0  0  0  0  0  0  0
   -2.6696    1.3058    0.0000 C   0  0  0  0  0  0  0  0  0  0  0  0
   -1.2922    1.8998    0.0000 C   0  0  0  0  0  0  0  0  0  0  0  0
   -1.1179    3.3897    0.0000 C   0  0  0  0  0  0  0  0  0  0  0  0
   -0.0891    1.0040    0.0000 C   0  0  0  0  0  0  0  0  0  0  0  0
    1.2883    1.5980    0.0000 C   0  0  0  0  0  0  0  0  0  0  0  0
    1.4625    3.0878    0.0000 Cl  0  0  0  0  0  0  0  0  0  0  0  0
    2.4914    0.7022    0.0000 C   0  0  0  0  0  0  0  0  0  0  0  0
    3.8688    1.2962    0.0000 O   0  0  0  0  0  0  0  0  0  0  0  0
    5.0719    0.4004    0.0000 C   0  0  0  0  0  0  0  0  0  0  0  0
    2.3171   -0.7877    0.0000 C   0  0  0  0  0  0  0  0  0  0  0  0
    0.9398   -1.3817    0.0000 C   0  0  0  0  0  0  0  0  0  0  0  0
    0.7655   -2.8715    0.0000 N   0  0  0  0  0  4  0  0  0  0  0  0
   -0.6118   -3.4655    0.0000 O   0  0  0  0  0  0  0  0  0  0  0  0
    1.9686   -3.7674    0.0000 O   0  0  0  0  0  1  0  0  0  0  0  0
   -0.2633   -0.4859    0.0000 C   0  0  0  0  0  0  0  0  0  0  0  0
   -1.6407   -1.0799    0.0000 N   0  0  0  0  0  0  0  0  0  0  0  0
  1  2  1  0
  2  3  1  0
  3  4  2  0
  4  5  1  0
  5  6  1  0
  5  7  2  0
  7  8  1  0
  8  9  1  0
  8 10  2  0
 10 11  1  0
 11 12  1  0
 10 13  1  0
 13 14  2  0
 14 15  1  0
 15 16  2  0
 15 17  1  0
 14 18  1  0
 18 19  2  0
 19  3  1  0
 18  7  1  0
M  CHG  2  15   1  17  -1
M  END
> <Identifier>
5-Chloro-2,6- dimethoxy-4- methyl-8- nitroquinoline

> <SkinReaction>
1

$$$$

     RDKit          2D

 18 19  0  0  0  0  0  0  0  0999 V2000
   -4.6136    0.4705    0.0000 C   0  0  0  0  0  0  0  0  0  0  0  0
   -3.7352   -0.7453    0.0000 O   0  0  0  0  0  0  0  0  0  0  0  0
   -2.2430   -0.5925    0.0000 C   0  0  0  0  0  0  0  0  0  0  0  0
   -1.3645   -1.8083    0.0000 C   0  0  0  0  0  0  0  0  0  0  0  0
    0.1277   -1.6555    0.0000 C   0  0  0  0  0  0  0  0  0  0  0  0
    1.0062   -2.8713    0.0000 N   0  0  0  0  0  4  0  0  0  0  0  0
    2.4984   -2.7185    0.0000 O   0  0  0  0  0  0  0  0  0  0  0  0
    0.3924   -4.2400    0.0000 O   0  0  0  0  0  1  0  0  0  0  0  0
    0.7414   -0.2868    0.0000 C   0  0  0  0  0  0  0  0  0  0  0  0
    2.2336   -0.1339    0.0000 N   0  0  0  0  0  0  0  0  0  0  0  0
    2.8473    1.2348    0.0000 C   0  0  0  0  0  0  0  0  0  0  0  0
    4.3395    1.3876    0.0000 O   0  0  0  0  0  0  0  0  0  0  0  0
    1.9689    2.4506    0.0000 C   0  0  0  0  0  0  0  0  0  0  0  0
    0.4767    2.2978    0.0000 C   0  0  0  0  0  0  0  0  0  0  0  0
   -0.4018    3.5136    0.0000 C   0  0  0  0  0  0  0  0  0  0  0  0
   -0.1371    0.9291    0.0000 C   0  0  0  0  0  0  0  0  0  0  0  0
   -1.6292    0.7762    0.0000 C   0  0  0  0  0  0  0  0  0  0  0  0
   -2.5077    1.9921    0.0000 Cl  0  0  0  0  0  0  0  0  0  0  0  0
  1  2  1  0
  2  3  1  0
  3  4  2  0
  4  5  1  0
  5  6  1  0
  6  7  2  0
  6  8  1  0
  5  9  2  0
  9 10  1  0
 10 11  1  0
 11 12  2  0
 11 13  1  0
 13 14  2  0
 14 15  1  0
 14 16  1  0
 16 17  2  0
 17 18  1  0
 17  3  1  0
 16  9  1  0
M  CHG  2   6   1   8  -1
M  END
> <Identifier>
5-Chloro-6-methoxy-4-methyl-8-nitro-2(1h)quinolinone

> <SkinReaction>
1

$$$$

     RDKit          2D

 15 16  0  0  0  0  0  0  0  0999 V2000
    1.6725    3.3817    0.0000 C   0  0  0  0  0  0  0  0  0  0  0  0
    1.8572    1.8931    0.0000 O   0  0  0  0  0  0  0  0  0  0  0  0
    0.6604    0.9888    0.0000 C   0  0  0  0  0  0  0  0  0  0  0  0
   -0.7211    1.5732    0.0000 C   0  0  0  0  0  0  0  0  0  0  0  0
   -1.9179    0.6689    0.0000 C   0  0  0  0  0  0  0  0  0  0  0  0
   -1.7332   -0.8196    0.0000 C   0  0  0  0  0  0  0  0  0  0  0  0
   -0.3517   -1.4040    0.0000 C   0  0  0  0  0  0  0  0  0  0  0  0
    0.8451   -0.4997    0.0000 C   0  0  0  0  0  0  0  0  0  0  0  0
    2.2266   -1.0841    0.0000 C   0  0  0  0  0  0  0  0  0  0  0  0
    3.6081   -1.6684    0.0000 F   0  0  0  0  0  0  0  0  0  0  0  0
    1.6422   -2.4656    0.0000 F   0  0  0  0  0  0  0  0  0  0  0  0
    2.8109    0.2974    0.0000 F   0  0  0  0  0  0  0  0  0  0  0  0
   -3.0919   -1.4553    0.0000 N   0  0  0  0  0  0  0  0  0  0  0  0
   -4.1163   -0.3596    0.0000 C   0  0  0  0  0  0  0  0  0  0  0  0
   -3.3907    0.9533    0.0000 C   0  0  0  0  0  0  0  0  0  0  0  0
  1  2  1  0
  2  3  1  0
  3  4  2  0
  4  5  1  0
  5  6  2  0
  6  7  1  0
  7  8  2  0
  8  9  1  0
  9 10  1  0
  9 11  1  0
  9 12  1  0
  6 13  1  0
 13 14  1  0
 14 15  1  0
  8  3  1  0
 15  5  1  0
M  END
> <Identifier>
5-Methoxy-6-trifluoromethyl-2,3-dihydro-1H-indole

> <SkinReaction>
1

$$$$

     RDKit          2D

 14 14  0  0  0  0  0  0  0  0999 V2000
   -5.0470    0.2165    0.0000 C   0  0  0  0  0  0  0  0  0  0  0  0
   -3.6396    0.7352    0.0000 C   0  0  0  0  0  0  0  0  0  0  0  0
   -3.3851    2.2135    0.0000 C   0  0  0  0  0  0  0  0  0  0  0  0
   -2.4866   -0.2243    0.0000 C   0  0  0  0  0  0  0  0  0  0  0  0
   -1.0791    0.2945    0.0000 C   0  0  0  0  0  0  0  0  0  0  0  0
    0.0738   -0.6650    0.0000 C   0  0  0  0  0  0  0  0  0  0  0  0
   -0.1806   -2.1433    0.0000 C   0  0  0  0  0  0  0  0  0  0  0  0
   -1.5881   -2.6620    0.0000 O   0  0  0  0  0  0  0  0  0  0  0  0
    1.4813   -0.1463    0.0000 C   0  0  0  0  0  0  0  0  0  0  0  0
    1.7357    1.3320    0.0000 C   0  0  0  0  0  0  0  0  0  0  0  0
    3.1432    1.8507    0.0000 C   0  0  0  0  0  0  0  0  0  0  0  0
    4.2962    0.8912    0.0000 C   0  0  0  0  0  0  0  0  0  0  0  0
    4.0417   -0.5870    0.0000 C   0  0  0  0  0  0  0  0  0  0  0  0
    2.6342   -1.1058    0.0000 C   0  0  0  0  0  0  0  0  0  0  0  0
  1  2  1  0
  2  3  1  0
  2  4  1  0
  4  5  1  0
  5  6  2  3
  6  7  1  0
  7  8  2  0
  6  9  1  0
  9 10  2  0
 10 11  1  0
 11 12  2  0
 12 13  1  0
 13 14  2  0
 14  9  1  0
M  END
> <Identifier>
5-Methyl-2-phenyl-2-hexenal

> <SkinReaction>
1

$$$$

     RDKit          2D

 15 16  0  0  0  0  0  0  0  0999 V2000
   -3.1675   -2.3424    0.0000 C   0  0  0  0  0  0  0  0  0  0  0  0
   -2.9377   -0.8601    0.0000 C   0  0  0  0  0  0  0  0  0  0  0  0
   -4.1065    0.0801    0.0000 N   0  0  0  0  0  0  0  0  0  0  0  0
   -3.8767    1.5624    0.0000 C   0  0  0  0  0  0  0  0  0  0  0  0
   -2.4781    2.1045    0.0000 C   0  0  0  0  0  0  0  0  0  0  0  0
   -1.3093    1.1643    0.0000 C   0  0  0  0  0  0  0  0  0  0  0  0
   -1.5391   -0.3179    0.0000 C   0  0  0  0  0  0  0  0  0  0  0  0
   -0.3703   -1.2581    0.0000 O   0  0  0  0  0  0  0  0  0  0  0  0
    1.0283   -0.7160    0.0000 C   0  0  0  0  0  0  0  0  0  0  0  0
    2.1971   -1.6562    0.0000 C   0  0  0  0  0  0  0  0  0  0  0  0
    3.5957   -1.1140    0.0000 C   0  0  0  0  0  0  0  0  0  0  0  0
    3.8255    0.3683    0.0000 C   0  0  0  0  0  0  0  0  0  0  0  0
    5.2241    0.9104    0.0000 N   0  0  0  0  0  0  0  0  0  0  0  0
    2.6567    1.3084    0.0000 C   0  0  0  0  0  0  0  0  0  0  0  0
    1.2581    0.7663    0.0000 N   0  0  0  0  0  0  0  0  0  0  0  0
  1  2  1  0
  2  3  2  0
  3  4  1  0
  4  5  2  0
  5  6  1  0
  6  7  2  0
  7  8  1  0
  8  9  1  0
  9 10  2  0
 10 11  1  0
 11 12  2  0
 12 13  1  0
 12 14  1  0
 14 15  2  0
  7  2  1  0
 15  9  1  0
M  END
> <Identifier>
6-[(2-Methyl-3-pyridinyl)oxy]-3-pyridinamine

> <SkinReaction>
1

$$$$

     RDKit          2D

 12 11  0  0  0  0  0  0  0  0999 V2000
    4.1848    2.1368    0.0000 C   0  0  0  0  0  0  0  0  0  0  0  0
    4.2113    0.6370    0.0000 C   0  0  0  0  0  0  0  0  0  0  0  0
    2.9257   -0.1358    0.0000 N   0  0  0  0  0  0  0  0  0  0  0  0
    2.9522   -1.6356    0.0000 C   0  0  0  0  0  0  0  0  0  0  0  0
    1.6666   -2.4084    0.0000 C   0  0  0  0  0  0  0  0  0  0  0  0
    1.6136    0.5911    0.0000 C   0  0  0  0  0  0  0  0  0  0  0  0
    0.3280   -0.1817    0.0000 C   0  0  0  0  0  0  0  0  0  0  0  0
   -0.9841    0.5452    0.0000 C   0  0  0  0  0  0  0  0  0  0  0  0
   -2.2696   -0.2276    0.0000 C   0  0  0  0  0  0  0  0  0  0  0  0
   -3.5817    0.4993    0.0000 C   0  0  0  0  0  0  0  0  0  0  0  0
   -4.8673   -0.2735    0.0000 C   0  0  0  0  0  0  0  0  0  0  0  0
   -6.1794    0.4534    0.0000 Br  0  0  0  0  0  0  0  0  0  0  0  0
  1  2  1  0
  2  3  1  0
  3  4  1  0
  4  5  1  0
  3  6  1  0
  6  7  1  0
  7  8  1  0
  8  9  1  0
  9 10  1  0
 10 11  1  0
 11 12  1  0
M  END
> <Identifier>
6-Diethylaminohexyl bromide hydrobromide

> <SkinReaction>
1

$$$$

     RDKit          2D

 20 23  0  0  0  0  0  0  0  0999 V2000
    1.9640   -3.0899    0.0000 C   0  0  0  0  0  0  0  0  0  0  0  0
    1.4730   -1.6725    0.0000 C   0  0  0  0  0  0  0  0  0  0  0  0
    2.4550   -0.5386    0.0000 C   0  0  0  0  0  0  0  0  0  0  0  0
    3.9279   -0.8221    0.0000 C   0  0  0  0  0  0  0  0  0  0  0  0
    4.9099    0.3118    0.0000 C   0  0  0  0  0  0  0  0  0  0  0  0
    4.4189    1.7292    0.0000 C   0  0  0  0  0  0  0  0  0  0  0  0
    2.9459    2.0127    0.0000 C   0  0  0  0  0  0  0  0  0  0  0  0
    1.9640    0.8788    0.0000 C   0  0  0  0  0  0  0  0  0  0  0  0
    0.4910    1.1622    0.0000 C   0  0  0  0  0  0  0  0  0  0  0  0
    0.0000    2.5796    0.0000 C   0  0  0  0  0  0  0  0  0  0  0  0
   -0.4910    0.0283    0.0000 C   0  0  0  0  0  0  0  0  0  0  0  0
   -0.0000   -1.3890    0.0000 C   0  0  0  0  0  0  0  0  0  0  0  0
   -0.9820   -2.5229    0.0000 C   0  0  0  0  0  0  0  0  0  0  0  0
   -2.4550   -2.2394    0.0000 C   0  0  0  0  0  0  0  0  0  0  0  0
   -2.9459   -0.8221    0.0000 C   0  0  0  0  0  0  0  0  0  0  0  0
   -4.4189   -0.5386    0.0000 C   0  0  0  0  0  0  0  0  0  0  0  0
   -4.9099    0.8788    0.0000 C   0  0  0  0  0  0  0  0  0  0  0  0
   -3.9279    2.0127    0.0000 C   0  0  0  0  0  0  0  0  0  0  0  0
   -2.4550    1.7292    0.0000 C   0  0  0  0  0  0  0  0  0  0  0  0
   -1.9640    0.3118    0.0000 C   0  0  0  0  0  0  0  0  0  0  0  0
  1  2  1  0
  2  3  2  0
  3  4  1  0
  4  5  2  0
  5  6  1  0
  6  7  2  0
  7  8  1  0
  8  9  2  0
  9 10  1  0
  9 11  1  0
 11 12  2  0
 12 13  1  0
 13 14  2  0
 14 15  1  0
 15 16  2  0
 16 17  1  0
 17 18  2  0
 18 19  1  0
 19 20  2  0
 12  2  1  0
 20 15  1  0
  8  3  1  0
 20 11  1  0
M  END
> <Identifier>
7,12-Dimethyl-benz[a]anthracene

> <SkinReaction>
1

$$$$

     RDKit          2D

 28 31  0  0  0  0  0  0  0  0999 V2000
   -7.9282   -2.3133    0.0000 C   0  0  0  0  0  0  0  0  0  0  0  0
   -6.8501   -1.2704    0.0000 O   0  0  0  0  0  0  0  0  0  0  0  0
   -5.4078   -1.6827    0.0000 N   0  0  0  0  0  0  0  0  0  0  0  0
   -4.3297   -0.6398    0.0000 C   0  0  0  0  0  0  0  0  0  0  0  0
   -2.8523   -0.8990    0.0000 C   0  0  0  0  0  0  0  0  0  0  0  0
   -2.1492    0.4261    0.0000 N   0  0  0  0  0  0  0  0  0  0  0  0
   -0.6640    0.6361    0.0000 C   0  0  0  0  0  0  0  0  0  0  0  0
    0.2605   -0.5452    0.0000 N   0  0  0  0  0  0  0  0  0  0  0  0
    1.7457   -0.3351    0.0000 C   0  0  0  0  0  0  0  0  0  0  0  0
    2.3065    1.0561    0.0000 C   0  0  0  0  0  0  0  0  0  0  0  0
    1.3820    2.2374    0.0000 C   0  0  0  0  0  0  0  0  0  0  0  0
   -0.1033    2.0273    0.0000 C   0  0  0  0  0  0  0  0  0  0  0  0
   -1.0278    3.2086    0.0000 F   0  0  0  0  0  0  0  0  0  0  0  0
    3.7917    1.2662    0.0000 C   0  0  0  0  0  0  0  0  0  0  0  0
    4.3524    2.6574    0.0000 O   0  0  0  0  0  0  0  0  0  0  0  0
    4.7162    0.0849    0.0000 C   0  0  0  0  0  0  0  0  0  0  0  0
    6.2014    0.2950    0.0000 C   0  0  0  0  0  0  0  0  0  0  0  0
    6.7621    1.6862    0.0000 O   0  0  0  0  0  0  0  0  0  0  0  0
    7.1259   -0.8863    0.0000 O   0  0  0  0  0  0  0  0  0  0  0  0
    4.1555   -1.3063    0.0000 C   0  0  0  0  0  0  0  0  0  0  0  0
    2.6702   -1.5164    0.0000 N   0  0  0  0  0  0  0  0  0  0  0  0
    2.1095   -2.9076    0.0000 C   0  0  0  0  0  0  0  0  0  0  0  0
    2.3195   -4.3928    0.0000 C   0  0  0  0  0  0  0  0  0  0  0  0
    0.9283   -3.8321    0.0000 C   0  0  0  0  0  0  0  0  0  0  0  0
   -3.1921    1.5042    0.0000 C   0  0  0  0  0  0  0  0  0  0  0  0
   -4.5397    0.8455    0.0000 C   0  0  0  0  0  0  0  0  0  0  0  0
   -5.8648    1.5485    0.0000 C   0  0  0  0  0  0  0  0  0  0  0  0
   -5.9184    3.0476    0.0000 N   0  0  0  0  0  0  0  0  0  0  0  0
  1  2  1  0
  2  3  1  0
  3  4  2  3
  4  5  1  0
  5  6  1  0
  6  7  1  0
  7  8  2  0
  8  9  1  0
  9 10  2  0
 10 11  1  0
 11 12  2  0
 12 13  1  0
 10 14  1  0
 14 15  2  0
 14 16  1  0
 16 17  1  0
 17 18  2  0
 17 19  1  0
 16 20  2  0
 20 21  1  0
 21 22  1  0
 22 23  1  0
 23 24  1  0
  6 25  1  0
 25 26  1  0
 26 27  1  0
 27 28  1  0
 26  4  1  0
 12  7  1  0
 24 22  1  0
 21  9  1  0
M  END
> <Identifier>
7-[(4z)-3-(Aminomethyl)-4-(methoxyimino)-1 -pyrrolidinyl]-1-cyclopropyl-6-fluoro-1,4-dihydro-4-oxo-1,8-naphthyridine-3 -carboxylic acid,monomethane-sulfonate

> <SkinReaction>
1

$$$$

     RDKit          2D

 15 14  0  0  0  0  0  0  0  0999 V2000
   -8.4924   -0.3982    0.0000 C   0  0  0  0  0  0  0  0  0  0  0  0
   -7.1845    0.3362    0.0000 C   0  0  0  0  0  0  0  0  0  0  0  0
   -5.8945   -0.4293    0.0000 C   0  0  0  0  0  0  0  0  0  0  0  0
   -4.5866    0.3050    0.0000 C   0  0  0  0  0  0  0  0  0  0  0  0
   -3.2967   -0.4605    0.0000 C   0  0  0  0  0  0  0  0  0  0  0  0
   -1.9887    0.2739    0.0000 C   0  0  0  0  0  0  0  0  0  0  0  0
   -0.6988   -0.4917    0.0000 C   0  0  0  0  0  0  0  0  0  0  0  0
    0.6092    0.2427    0.0000 C   0  0  0  0  0  0  0  0  0  0  0  0
    0.6272    1.7426    0.0000 Br  0  0  0  0  0  0  0  0  0  0  0  0
    1.8991   -0.5228    0.0000 C   0  0  0  0  0  0  0  0  0  0  0  0
    3.2071    0.2116    0.0000 C   0  0  0  0  0  0  0  0  0  0  0  0
    4.4970   -0.5540    0.0000 C   0  0  0  0  0  0  0  0  0  0  0  0
    5.8050    0.1804    0.0000 C   0  0  0  0  0  0  0  0  0  0  0  0
    7.0949   -0.5851    0.0000 C   0  0  0  0  0  0  0  0  0  0  0  0
    8.4028    0.1492    0.0000 C   0  0  0  0  0  0  0  0  0  0  0  0
  1  2  1  0
  2  3  1  0
  3  4  1  0
  4  5  1  0
  5  6  1  0
  6  7  1  0
  7  8  1  0
  8  9  1  0
  8 10  1  0
 10 11  1  0
 11 12  1  0
 12 13  1  0
 13 14  1  0
 14 15  1  0
M  END
> <Identifier>
7-Bromotetradecane

> <SkinReaction>
1

$$$$

     RDKit          2D

 17 18  0  0  0  0  0  0  0  0999 V2000
    6.6292    1.0361    0.0000 C   0  0  0  0  0  0  0  0  0  0  0  0
    5.3818    0.2030    0.0000 C   0  0  0  0  0  0  0  0  0  0  0  0
    4.0366    0.8668    0.0000 C   0  0  0  0  0  0  0  0  0  0  0  0
    2.7892    0.0337    0.0000 C   0  0  0  0  0  0  0  0  0  0  0  0
    1.4441    0.6975    0.0000 C   0  0  0  0  0  0  0  0  0  0  0  0
    0.1967   -0.1356    0.0000 N   0  0  0  0  0  0  0  0  0  0  0  0
    0.2944   -1.6324    0.0000 C   0  0  0  0  0  0  0  0  0  0  0  0
    1.6396   -2.2962    0.0000 O   0  0  0  0  0  0  0  0  0  0  0  0
   -0.9530   -2.4655    0.0000 N   0  0  0  0  0  0  0  0  0  0  0  0
   -2.2981   -1.8017    0.0000 C   0  0  0  0  0  0  0  0  0  0  0  0
   -3.5455   -2.6348    0.0000 O   0  0  0  0  0  0  0  0  0  0  0  0
   -2.3959   -0.3049    0.0000 C   0  0  0  0  0  0  0  0  0  0  0  0
   -3.5737    0.6240    0.0000 N   0  0  0  0  0  0  0  0  0  0  0  0
   -3.0541    2.0312    0.0000 C   0  0  0  0  0  0  0  0  0  0  0  0
   -3.8872    3.2786    0.0000 Cl  0  0  0  0  0  0  0  0  0  0  0  0
   -1.5553    1.9719    0.0000 N   0  0  0  0  0  0  0  0  0  0  0  0
   -1.1485    0.5282    0.0000 C   0  0  0  0  0  0  0  0  0  0  0  0
  1  2  1  0
  2  3  1  0
  3  4  1  0
  4  5  1  0
  5  6  1  0
  6  7  1  0
  7  8  2  0
  7  9  1  0
  9 10  1  0
 10 11  2  0
 10 12  1  0
 12 13  1  0
 13 14  1  0
 14 15  1  0
 14 16  2  0
 16 17  1  0
 17  6  1  0
 17 12  2  0
M  END
> <Identifier>
8-Chloro-3-pentyl-3,7-dihydro-1h-purine-2,6-dione

> <SkinReaction>
1

$$$$

     RDKit          2D

 22 24  0  0  0  0  0  0  0  0999 V2000
    5.5081   -1.8437    0.0000 C   0  0  0  0  0  0  0  0  0  0  0  0
    5.0605   -0.4120    0.0000 C   0  0  0  0  0  0  0  0  0  0  0  0
    6.0766    0.6915    0.0000 C   0  0  0  0  0  0  0  0  0  0  0  0
    3.5969   -0.0838    0.0000 C   0  0  0  0  0  0  0  0  0  0  0  0
    2.5808   -1.1873    0.0000 C   0  0  0  0  0  0  0  0  0  0  0  0
    1.1172   -0.8591    0.0000 C   0  0  0  0  0  0  0  0  0  0  0  0
    0.1011   -1.9625    0.0000 C   0  0  0  0  0  0  0  0  0  0  0  0
   -1.3625   -1.6343    0.0000 C   0  0  0  0  0  0  0  0  0  0  0  0
   -1.8101   -0.2027    0.0000 C   0  0  0  0  0  0  0  0  0  0  0  0
   -3.2738    0.1255    0.0000 C   0  0  0  0  0  0  0  0  0  0  0  0
   -4.7614   -0.0666    0.0000 C   0  0  0  0  0  0  0  0  0  0  0  0
   -3.3428   -1.3729    0.0000 C   0  0  0  0  0  0  0  0  0  0  0  0
   -2.0797   -2.1819    0.0000 O   0  0  0  0  0  0  0  0  0  0  0  0
   -4.6750   -2.0623    0.0000 O   0  0  0  0  0  0  0  0  0  0  0  0
   -3.7214    1.5572    0.0000 C   0  0  0  0  0  0  0  0  0  0  0  0
   -2.7053    2.6607    0.0000 C   0  0  0  0  0  0  0  0  0  0  0  0
   -1.2417    2.3325    0.0000 C   0  0  0  0  0  0  0  0  0  0  0  0
   -0.7941    0.9008    0.0000 C   0  0  0  0  0  0  0  0  0  0  0  0
    0.2220    2.0043    0.0000 C   0  0  0  0  0  0  0  0  0  0  0  0
    0.6696    0.5726    0.0000 C   0  0  0  0  0  0  0  0  0  0  0  0
    1.6856    1.6761    0.0000 C   0  0  0  0  0  0  0  0  0  0  0  0
    3.1493    1.3479    0.0000 C   0  0  0  0  0  0  0  0  0  0  0  0
  1  2  1  0
  2  3  1  0
  2  4  1  0
  4  5  2  0
  5  6  1  0
  6  7  2  0
  7  8  1  0
  8  9  1  0
  9 10  1  0
 10 11  1  0
 10 12  1  0
 12 13  2  0
 12 14  1  0
 10 15  1  0
 15 16  1  0
 16 17  1  0
 17 18  1  0
 18 19  1  0
 18 20  1  0
 20 21  1  0
 21 22  1  0
 22  4  1  0
 20  6  1  0
 18  9  1  0
M  END
> <Identifier>
Abietic acid

> <SkinReaction>
1

$$$$

     RDKit          2D

 10 10  0  0  0  0  0  0  0  0999 V2000
    3.7500    0.0000    0.0000 C   0  0  0  0  0  0  0  0  0  0  0  0
    2.2500   -0.0000    0.0000 C   0  0  0  0  0  0  0  0  0  0  0  0
    1.5000   -1.2990    0.0000 C   0  0  0  0  0  0  0  0  0  0  0  0
   -0.0000   -1.2990    0.0000 C   0  0  0  0  0  0  0  0  0  0  0  0
   -0.7500    0.0000    0.0000 C   0  0  0  0  0  0  0  0  0  0  0  0
   -2.2500    0.0000    0.0000 C   0  0  0  0  0  0  0  0  0  0  0  0
   -3.0000    1.2990    0.0000 C   0  0  0  0  0  0  0  0  0  0  0  0
   -3.0000   -1.2990    0.0000 C   0  0  0  0  0  0  0  0  0  0  0  0
    0.0000    1.2990    0.0000 C   0  0  0  0  0  0  0  0  0  0  0  0
    1.5000    1.2990    0.0000 C   0  0  0  0  0  0  0  0  0  0  0  0
  1  2  1  0
  2  3  2  0
  3  4  1  0
  4  5  1  0
  5  6  1  0
  6  7  1  0
  6  8  1  0
  5  9  1  0
  9 10  2  0
 10  2  1  0
M  END
> <Identifier>
a-Phellandrenea

> <SkinReaction>
1

$$$$

     RDKit          2D

 10 10  0  0  0  0  0  0  0  0999 V2000
    3.7500    0.0000    0.0000 C   0  0  0  0  0  0  0  0  0  0  0  0
    2.2500   -0.0000    0.0000 C   0  0  0  0  0  0  0  0  0  0  0  0
    1.5000   -1.2990    0.0000 C   0  0  0  0  0  0  0  0  0  0  0  0
   -0.0000   -1.2990    0.0000 C   0  0  0  0  0  0  0  0  0  0  0  0
   -0.7500    0.0000    0.0000 C   0  0  0  0  0  0  0  0  0  0  0  0
   -2.2500    0.0000    0.0000 C   0  0  0  0  0  0  0  0  0  0  0  0
   -3.0000    1.2990    0.0000 C   0  0  0  0  0  0  0  0  0  0  0  0
   -3.0000   -1.2990    0.0000 C   0  0  0  0  0  0  0  0  0  0  0  0
    0.0000    1.2990    0.0000 C   0  0  0  0  0  0  0  0  0  0  0  0
    1.5000    1.2990    0.0000 C   0  0  0  0  0  0  0  0  0  0  0  0
  1  2  1  0
  2  3  2  0
  3  4  1  0
  4  5  2  0
  5  6  1  0
  6  7  1  0
  6  8  1  0
  5  9  1  0
  9 10  1  0
 10  2  1  0
M  END
> <Identifier>
a-Terpinene

> <SkinReaction>
1

$$$$

     RDKit          2D

 52 54  0  0  0  0  0  0  0  0999 V2000
    3.3508   -6.5876    0.0000 C   0  0  0  0  0  0  0  0  0  0  0  0
    3.5573   -5.1019    0.0000 C   0  0  0  0  0  0  0  0  0  0  0  0
    2.3738   -4.1802    0.0000 C   0  0  0  0  0  0  0  0  0  0  0  0
    3.0293   -2.8310    0.0000 O   0  0  0  0  0  0  0  0  0  0  0  0
    3.0793   -1.3319    0.0000 C   0  0  0  0  0  0  0  0  0  0  0  0
    4.5561   -1.0691    0.0000 O   0  0  0  0  0  0  0  0  0  0  0  0
    2.5152    0.0580    0.0000 C   0  0  0  0  0  0  0  0  0  0  0  0
    3.7831    0.5217    0.0000 C   0  0  0  0  0  0  0  0  0  0  0  0
    1.4346    1.0983    0.0000 C   0  0  0  0  0  0  0  0  0  0  0  0
    2.2275    2.3717    0.0000 O   0  0  0  0  0  0  0  0  0  0  0  0
    3.7267    2.3216    0.0000 C   0  0  0  0  0  0  0  0  0  0  0  0
    4.5196    3.5949    0.0000 C   0  0  0  0  0  0  0  0  0  0  0  0
    6.0187    3.5449    0.0000 C   0  0  0  0  0  0  0  0  0  0  0  0
    7.4446    4.0107    0.0000 C   0  0  0  0  0  0  0  0  0  0  0  0
    5.8077    5.0300    0.0000 O   0  0  0  0  0  0  0  0  0  0  0  0
    6.9882    5.9553    0.0000 C   0  0  0  0  0  0  0  0  0  0  0  0
    6.7250    2.2216    0.0000 C   0  0  0  0  0  0  0  0  0  0  0  0
    8.2242    2.1716    0.0000 O   0  0  0  0  0  0  0  0  0  0  0  0
    5.9321    0.9483    0.0000 C   0  0  0  0  0  0  0  0  0  0  0  0
    6.6384   -0.3750    0.0000 C   0  0  0  0  0  0  0  0  0  0  0  0
    4.4329    0.9983    0.0000 O   0  0  0  0  0  0  0  0  0  0  0  0
    0.0243    1.6092    0.0000 C   0  0  0  0  0  0  0  0  0  0  0  0
    0.2307    3.0949    0.0000 C   0  0  0  0  0  0  0  0  0  0  0  0
   -1.4719    1.5022    0.0000 C   0  0  0  0  0  0  0  0  0  0  0  0
   -1.8876    2.9435    0.0000 O   0  0  0  0  0  0  0  0  0  0  0  0
   -3.3436    3.3041    0.0000 C   0  0  0  0  0  0  0  0  0  0  0  0
   -3.7593    4.7453    0.0000 O   0  0  0  0  0  0  0  0  0  0  0  0
   -5.2153    5.1060    0.0000 C   0  0  0  0  0  0  0  0  0  0  0  0
   -5.6310    6.5472    0.0000 C   0  0  0  0  0  0  0  0  0  0  0  0
   -6.2556    4.0253    0.0000 C   0  0  0  0  0  0  0  0  0  0  0  0
   -5.8399    2.5841    0.0000 C   0  0  0  0  0  0  0  0  0  0  0  0
   -6.8803    1.5035    0.0000 N   0  0  0  0  0  0  0  0  0  0  0  0
   -8.3363    1.8641    0.0000 C   0  0  0  0  0  0  0  0  0  0  0  0
   -6.4646    0.0622    0.0000 C   0  0  0  0  0  0  0  0  0  0  0  0
   -4.3839    2.2235    0.0000 C   0  0  0  0  0  0  0  0  0  0  0  0
   -4.2580    1.4363    0.0000 O   0  0  0  0  0  0  0  0  0  0  0  0
   -2.7953    0.7960    0.0000 C   0  0  0  0  0  0  0  0  0  0  0  0
   -3.5828    0.9194    0.0000 C   0  0  0  0  0  0  0  0  0  0  0  0
   -2.9544    2.2875    0.0000 O   0  0  0  0  0  0  0  0  0  0  0  0
   -3.7169   -0.3875    0.0000 C   0  0  0  0  0  0  0  0  0  0  0  0
   -4.0775   -1.8435    0.0000 C   0  0  0  0  0  0  0  0  0  0  0  0
   -5.5767   -1.7935    0.0000 C   0  0  0  0  0  0  0  0  0  0  0  0
   -3.8148   -3.3203    0.0000 C   0  0  0  0  0  0  0  0  0  0  0  0
   -2.9740   -4.5625    0.0000 N   0  0  0  0  0  0  0  0  0  0  0  0
   -4.0144   -5.6432    0.0000 C   0  0  0  0  0  0  0  0  0  0  0  0
   -1.7007   -5.3554    0.0000 C   0  0  0  0  0  0  0  0  0  0  0  0
   -2.2116   -6.7658    0.0000 C   0  0  0  0  0  0  0  0  0  0  0  0
   -0.2150   -5.5619    0.0000 C   0  0  0  0  0  0  0  0  0  0  0  0
   -0.1081   -7.0581    0.0000 O   0  0  0  0  0  0  0  0  0  0  0  0
    1.2262   -5.1462    0.0000 C   0  0  0  0  0  0  0  0  0  0  0  0
    2.5518   -5.8484    0.0000 C   0  0  0  0  0  0  0  0  0  0  0  0
    1.0718   -6.6382    0.0000 O   0  0  0  0  0  0  0  0  0  0  0  0
  1  2  1  0
  2  3  1  0
  3  4  1  0
  4  5  1  0
  5  6  2  0
  5  7  1  0
  7  8  1  0
  7  9  1  0
  9 10  1  0
 10 11  1  0
 11 12  1  0
 12 13  1  0
 13 14  1  0
 13 15  1  0
 15 16  1  0
 13 17  1  0
 17 18  1  0
 17 19  1  0
 19 20  1  0
 19 21  1  0
  9 22  1  0
 22 23  1  0
 22 24  1  0
 24 25  1  0
 25 26  1  0
 26 27  1  0
 27 28  1  0
 28 29  1  0
 28 30  1  0
 30 31  1  0
 31 32  1  0
 32 33  1  0
 32 34  1  0
 31 35  1  0
 35 36  1  0
 24 37  1  0
 37 38  1  0
 37 39  1  0
 37 40  1  0
 40 41  1  0
 41 42  1  0
 41 43  1  0
 43 44  1  0
 44 45  1  0
 44 46  1  0
 46 47  1  0
 46 48  1  0
 48 49  1  0
 48 50  1  0
 50 51  1  0
 50 52  1  0
 50  3  1  0
 21 11  1  0
 35 26  1  0
M  END
> <Identifier>
Azithromycin

> <SkinReaction>
1

$$$$

     RDKit          2D

 24 26  0  0  0  0  0  0  0  0999 V2000
   -0.1080   -2.9981    0.0000 N   0  0  0  0  0  0  0  0  0  0  0  0
   -0.0540   -1.4990    0.0000 C   0  0  0  0  0  0  0  0  0  0  0  0
   -1.3252   -0.7027    0.0000 C   0  0  0  0  0  0  0  0  0  0  0  0
   -1.2712    0.7963    0.0000 C   0  0  0  0  0  0  0  0  0  0  0  0
   -2.5424    1.5926    0.0000 N   0  0  0  0  0  0  0  0  0  0  0  0
   -3.8676    0.8899    0.0000 C   0  0  0  0  0  0  0  0  0  0  0  0
   -5.1388    1.6862    0.0000 C   0  0  0  0  0  0  0  0  0  0  0  0
   -6.4640    0.9834    0.0000 C   0  0  0  0  0  0  0  0  0  0  0  0
   -6.5180   -0.5156    0.0000 C   0  0  0  0  0  0  0  0  0  0  0  0
   -7.8432   -1.2183    0.0000 N   0  0  0  0  0  0  0  0  0  0  0  0
   -5.2468   -1.3119    0.0000 C   0  0  0  0  0  0  0  0  0  0  0  0
   -3.9216   -0.6092    0.0000 C   0  0  0  0  0  0  0  0  0  0  0  0
    0.0540    1.4990    0.0000 C   0  0  0  0  0  0  0  0  0  0  0  0
    0.1080    2.9981    0.0000 N   0  0  0  0  0  0  0  0  0  0  0  0
    1.3252    0.7027    0.0000 C   0  0  0  0  0  0  0  0  0  0  0  0
    1.2712   -0.7963    0.0000 C   0  0  0  0  0  0  0  0  0  0  0  0
    2.5424   -1.5926    0.0000 N   0  0  0  0  0  0  0  0  0  0  0  0
    3.8676   -0.8899    0.0000 C   0  0  0  0  0  0  0  0  0  0  0  0
    5.1388   -1.6862    0.0000 C   0  0  0  0  0  0  0  0  0  0  0  0
    6.4640   -0.9834    0.0000 C   0  0  0  0  0  0  0  0  0  0  0  0
    6.5180    0.5156    0.0000 C   0  0  0  0  0  0  0  0  0  0  0  0
    7.8432    1.2183    0.0000 N   0  0  0  0  0  0  0  0  0  0  0  0
    5.2468    1.3119    0.0000 C   0  0  0  0  0  0  0  0  0  0  0  0
    3.9216    0.6092    0.0000 C   0  0  0  0  0  0  0  0  0  0  0  0
  1  2  2  0
  2  3  1  0
  3  4  1  0
  4  5  2  3
  5  6  1  0
  6  7  2  0
  7  8  1  0
  8  9  2  0
  9 10  1  0
  9 11  1  0
 11 12  2  0
  4 13  1  0
 13 14  2  0
 13 15  1  0
 15 16  1  0
 16 17  2  3
 17 18  1  0
 18 19  2  0
 19 20  1  0
 20 21  2  0
 21 22  1  0
 21 23  1  0
 23 24  2  0
 16  2  1  0
 24 18  1  0
 12  6  1  0
M  END
> <Identifier>
Bandrowski's base

> <SkinReaction>
1

$$$$

     RDKit          2D

 24 24  0  0  0  0  0  0  0  0999 V2000
  -12.8238    1.4356    0.0000 C   0  0  0  0  0  0  0  0  0  0  0  0
  -11.6701    0.4771    0.0000 C   0  0  0  0  0  0  0  0  0  0  0  0
  -10.2631    0.9970    0.0000 C   0  0  0  0  0  0  0  0  0  0  0  0
   -9.1093    0.0385    0.0000 C   0  0  0  0  0  0  0  0  0  0  0  0
   -7.7023    0.5584    0.0000 C   0  0  0  0  0  0  0  0  0  0  0  0
   -6.5485   -0.4002    0.0000 C   0  0  0  0  0  0  0  0  0  0  0  0
   -5.1415    0.1197    0.0000 C   0  0  0  0  0  0  0  0  0  0  0  0
   -3.9877   -0.8388    0.0000 C   0  0  0  0  0  0  0  0  0  0  0  0
   -2.5807   -0.3189    0.0000 C   0  0  0  0  0  0  0  0  0  0  0  0
   -1.4269   -1.2774    0.0000 C   0  0  0  0  0  0  0  0  0  0  0  0
   -0.0199   -0.7575    0.0000 C   0  0  0  0  0  0  0  0  0  0  0  0
    1.1338   -1.7161    0.0000 C   0  0  0  0  0  0  0  0  0  0  0  0
    2.5409   -1.1961    0.0000 C   0  0  0  0  0  0  0  0  0  0  0  0
    3.6946   -2.1547    0.0000 C   0  0  0  0  0  0  0  0  0  0  0  0
    5.1016   -1.6348    0.0000 N   0  0  0  0  0  4  0  0  0  0  0  0
    5.6216   -3.0418    0.0000 C   0  0  0  0  0  0  0  0  0  0  0  0
    4.5817   -0.2278    0.0000 C   0  0  0  0  0  0  0  0  0  0  0  0
    6.5087   -1.1148    0.0000 C   0  0  0  0  0  0  0  0  0  0  0  0
    6.7619    0.3636    0.0000 C   0  0  0  0  0  0  0  0  0  0  0  0
    5.6081    1.3222    0.0000 C   0  0  0  0  0  0  0  0  0  0  0  0
    5.8614    2.8006    0.0000 C   0  0  0  0  0  0  0  0  0  0  0  0
    7.2684    3.3206    0.0000 C   0  0  0  0  0  0  0  0  0  0  0  0
    8.4222    2.3620    0.0000 C   0  0  0  0  0  0  0  0  0  0  0  0
    8.1689    0.8835    0.0000 C   0  0  0  0  0  0  0  0  0  0  0  0
  1  2  1  0
  2  3  1  0
  3  4  1  0
  4  5  1  0
  5  6  1  0
  6  7  1  0
  7  8  1  0
  8  9  1  0
  9 10  1  0
 10 11  1  0
 11 12  1  0
 12 13  1  0
 13 14  1  0
 14 15  1  0
 15 16  1  0
 15 17  1  0
 15 18  1  0
 18 19  1  0
 19 20  2  0
 20 21  1  0
 21 22  2  0
 22 23  1  0
 23 24  2  0
 24 19  1  0
M  CHG  1  15   1
M  END
> <Identifier>
Benzalkonium chloride

> <SkinReaction>
1

$$$$

     RDKit          2D

 20 24  0  0  0  0  0  0  0  0999 V2000
   -5.0806   -0.1093    0.0000 C   0  0  0  0  0  0  0  0  0  0  0  0
   -4.6242    1.3196    0.0000 C   0  0  0  0  0  0  0  0  0  0  0  0
   -3.1585    1.6388    0.0000 C   0  0  0  0  0  0  0  0  0  0  0  0
   -2.1493    0.5291    0.0000 C   0  0  0  0  0  0  0  0  0  0  0  0
   -2.6057   -0.8998    0.0000 C   0  0  0  0  0  0  0  0  0  0  0  0
   -4.0714   -1.2190    0.0000 C   0  0  0  0  0  0  0  0  0  0  0  0
   -1.5965   -2.0095    0.0000 C   0  0  0  0  0  0  0  0  0  0  0  0
   -0.1308   -1.6903    0.0000 C   0  0  0  0  0  0  0  0  0  0  0  0
    0.8784   -2.8000    0.0000 C   0  0  0  0  0  0  0  0  0  0  0  0
    2.3441   -2.4809    0.0000 C   0  0  0  0  0  0  0  0  0  0  0  0
    2.8005   -1.0520    0.0000 C   0  0  0  0  0  0  0  0  0  0  0  0
    4.2661   -0.7328    0.0000 C   0  0  0  0  0  0  0  0  0  0  0  0
    4.7225    0.6961    0.0000 C   0  0  0  0  0  0  0  0  0  0  0  0
    3.7133    1.8058    0.0000 C   0  0  0  0  0  0  0  0  0  0  0  0
    2.2476    1.4866    0.0000 C   0  0  0  0  0  0  0  0  0  0  0  0
    1.2384    2.5963    0.0000 C   0  0  0  0  0  0  0  0  0  0  0  0
   -0.2272    2.2771    0.0000 C   0  0  0  0  0  0  0  0  0  0  0  0
   -0.6836    0.8482    0.0000 C   0  0  0  0  0  0  0  0  0  0  0  0
    0.3256   -0.2615    0.0000 C   0  0  0  0  0  0  0  0  0  0  0  0
    1.7912    0.0577    0.0000 C   0  0  0  0  0  0  0  0  0  0  0  0
  1  2  2  0
  2  3  1  0
  3  4  2  0
  4  5  1  0
  5  6  2  0
  5  7  1  0
  7  8  2  0
  8  9  1  0
  9 10  2  0
 10 11  1  0
 11 12  2  0
 12 13  1  0
 13 14  2  0
 14 15  1  0
 15 16  2  0
 16 17  1  0
 17 18  2  0
 18 19  1  0
 19 20  2  0
  6  1  1  0
 19  8  1  0
 18  4  1  0
 20 11  1  0
 20 15  1  0
M  END
> <Identifier>
Benzo[a]pyrene

> <SkinReaction>
1

$$$$

     RDKit          2D

  8  8  0  0  0  0  0  0  0  0999 V2000
    3.0000    0.0000    0.0000 O   0  0  0  0  0  0  0  0  0  0  0  0
    1.5000   -0.0000    0.0000 C   0  0  0  0  0  0  0  0  0  0  0  0
    0.7500   -1.2990    0.0000 C   0  0  0  0  0  0  0  0  0  0  0  0
   -0.7500   -1.2990    0.0000 C   0  0  0  0  0  0  0  0  0  0  0  0
   -1.5000    0.0000    0.0000 C   0  0  0  0  0  0  0  0  0  0  0  0
   -3.0000    0.0000    0.0000 O   0  0  0  0  0  0  0  0  0  0  0  0
   -0.7500    1.2990    0.0000 C   0  0  0  0  0  0  0  0  0  0  0  0
    0.7500    1.2990    0.0000 C   0  0  0  0  0  0  0  0  0  0  0  0
  1  2  2  0
  2  3  1  0
  3  4  2  0
  4  5  1  0
  5  6  2  0
  5  7  1  0
  7  8  2  0
  8  2  1  0
M  END
> <Identifier>
Benzoquinone

> <SkinReaction>
1

$$$$

     RDKit          2D

  5  5  0  0  0  0  0  0  0  0999 V2000
    2.0485    0.0000    0.0000 O   0  0  0  0  0  0  0  0  0  0  0  0
    0.5485   -0.0000    0.0000 C   0  0  0  0  0  0  0  0  0  0  0  0
   -0.5121   -1.0607    0.0000 C   0  0  0  0  0  0  0  0  0  0  0  0
   -1.5728    0.0000    0.0000 C   0  0  0  0  0  0  0  0  0  0  0  0
   -0.5121    1.0607    0.0000 O   0  0  0  0  0  0  0  0  0  0  0  0
  1  2  2  0
  2  3  1  0
  3  4  1  0
  4  5  1  0
  5  2  1  0
M  END
> <Identifier>
beta-Propiolactone

> <SkinReaction>
1

$$$$

     RDKit          2D

  6  5  0  0  0  0  0  0  0  0999 V2000
    1.5000    1.2990    0.0000 C   0  0  0  0  0  0  0  0  0  0  0  0
    0.7500    0.0000    0.0000 C   0  0  0  0  0  0  0  0  0  0  0  0
    1.5000   -1.2990    0.0000 O   0  0  0  0  0  0  0  0  0  0  0  0
   -0.7500   -0.0000    0.0000 C   0  0  0  0  0  0  0  0  0  0  0  0
   -1.5000   -1.2990    0.0000 C   0  0  0  0  0  0  0  0  0  0  0  0
   -1.5000    1.2990    0.0000 O   0  0  0  0  0  0  0  0  0  0  0  0
  1  2  1  0
  2  3  2  0
  2  4  1  0
  4  5  1  0
  4  6  2  0
M  END
> <Identifier>
Butanedione

> <SkinReaction>
1

$$$$

     RDKit          2D

 23 23  0  0  0  0  0  0  0  0999 V2000
  -13.3718    0.0866    0.0000 C   0  0  0  0  0  0  0  0  0  0  0  0
  -12.0259    0.7489    0.0000 C   0  0  0  0  0  0  0  0  0  0  0  0
  -10.7795   -0.0856    0.0000 C   0  0  0  0  0  0  0  0  0  0  0  0
   -9.4336    0.5767    0.0000 C   0  0  0  0  0  0  0  0  0  0  0  0
   -8.1871   -0.2577    0.0000 C   0  0  0  0  0  0  0  0  0  0  0  0
   -6.8412    0.4046    0.0000 C   0  0  0  0  0  0  0  0  0  0  0  0
   -5.5947   -0.4298    0.0000 C   0  0  0  0  0  0  0  0  0  0  0  0
   -4.2488    0.2324    0.0000 C   0  0  0  0  0  0  0  0  0  0  0  0
   -3.0024   -0.6020    0.0000 C   0  0  0  0  0  0  0  0  0  0  0  0
   -1.6565    0.0603    0.0000 C   0  0  0  0  0  0  0  0  0  0  0  0
   -0.4100   -0.7741    0.0000 C   0  0  0  0  0  0  0  0  0  0  0  0
    0.9359   -0.1118    0.0000 C   0  0  0  0  0  0  0  0  0  0  0  0
    2.1824   -0.9462    0.0000 C   0  0  0  0  0  0  0  0  0  0  0  0
    3.5283   -0.2840    0.0000 C   0  0  0  0  0  0  0  0  0  0  0  0
    4.7747   -1.1184    0.0000 C   0  0  0  0  0  0  0  0  0  0  0  0
    6.1206   -0.4561    0.0000 C   0  0  0  0  0  0  0  0  0  0  0  0
    7.4475   -1.1556    0.0000 N   0  0  0  0  0  0  0  0  0  0  0  0
    8.5229   -0.1099    0.0000 C   0  0  0  0  0  0  0  0  0  0  0  0
    9.7921    0.6895    0.0000 C   0  0  0  0  0  0  0  0  0  0  0  0
    9.4505   -1.2886    0.0000 C   0  0  0  0  0  0  0  0  0  0  0  0
    7.8606    1.2360    0.0000 C   0  0  0  0  0  0  0  0  0  0  0  0
    8.5601    2.5629    0.0000 O   0  0  0  0  0  0  0  0  0  0  0  0
    6.3759    1.0220    0.0000 O   0  0  0  0  0  0  0  0  0  0  0  0
  1  2  1  0
  2  3  1  0
  3  4  1  0
  4  5  1  0
  5  6  1  0
  6  7  1  0
  7  8  1  0
  8  9  1  0
  9 10  1  0
 10 11  1  0
 11 12  1  0
 12 13  1  0
 13 14  1  0
 14 15  1  0
 15 16  1  0
 16 17  2  0
 17 18  1  0
 18 19  1  0
 18 20  1  0
 18 21  1  0
 21 22  2  0
 21 23  1  0
 23 16  1  0
M  END
> <Identifier>
C15-azlactone

> <SkinReaction>
1

$$$$

     RDKit          2D

 25 25  0  0  0  0  0  0  0  0999 V2000
  -14.7422    0.0701    0.0000 C   0  0  0  0  0  0  0  0  0  0  0  0
  -13.4028    0.7453    0.0000 C   0  0  0  0  0  0  0  0  0  0  0  0
  -12.1483   -0.0771    0.0000 C   0  0  0  0  0  0  0  0  0  0  0  0
  -10.8089    0.5980    0.0000 C   0  0  0  0  0  0  0  0  0  0  0  0
   -9.5544   -0.2244    0.0000 C   0  0  0  0  0  0  0  0  0  0  0  0
   -8.2150    0.4508    0.0000 C   0  0  0  0  0  0  0  0  0  0  0  0
   -6.9605   -0.3717    0.0000 C   0  0  0  0  0  0  0  0  0  0  0  0
   -5.6211    0.3035    0.0000 C   0  0  0  0  0  0  0  0  0  0  0  0
   -4.3666   -0.5189    0.0000 C   0  0  0  0  0  0  0  0  0  0  0  0
   -3.0272    0.1562    0.0000 C   0  0  0  0  0  0  0  0  0  0  0  0
   -1.7727   -0.6662    0.0000 C   0  0  0  0  0  0  0  0  0  0  0  0
   -0.4333    0.0090    0.0000 C   0  0  0  0  0  0  0  0  0  0  0  0
    0.8212   -0.8135    0.0000 C   0  0  0  0  0  0  0  0  0  0  0  0
    2.1606   -0.1383    0.0000 C   0  0  0  0  0  0  0  0  0  0  0  0
    3.4151   -0.9607    0.0000 C   0  0  0  0  0  0  0  0  0  0  0  0
    4.7545   -0.2856    0.0000 C   0  0  0  0  0  0  0  0  0  0  0  0
    6.0090   -1.1080    0.0000 C   0  0  0  0  0  0  0  0  0  0  0  0
    7.3484   -0.4328    0.0000 C   0  0  0  0  0  0  0  0  0  0  0  0
    8.6819   -1.1196    0.0000 N   0  0  0  0  0  0  0  0  0  0  0  0
    9.7472   -0.0636    0.0000 C   0  0  0  0  0  0  0  0  0  0  0  0
   11.0088    0.7479    0.0000 C   0  0  0  0  0  0  0  0  0  0  0  0
   10.6861   -1.2334    0.0000 C   0  0  0  0  0  0  0  0  0  0  0  0
    9.0721    1.2759    0.0000 C   0  0  0  0  0  0  0  0  0  0  0  0
    9.7589    2.6094    0.0000 O   0  0  0  0  0  0  0  0  0  0  0  0
    7.5895    1.0477    0.0000 O   0  0  0  0  0  0  0  0  0  0  0  0
  1  2  1  0
  2  3  1  0
  3  4  1  0
  4  5  1  0
  5  6  1  0
  6  7  1  0
  7  8  1  0
  8  9  1  0
  9 10  1  0
 10 11  1  0
 11 12  1  0
 12 13  1  0
 13 14  1  0
 14 15  1  0
 15 16  1  0
 16 17  1  0
 17 18  1  0
 18 19  2  0
 19 20  1  0
 20 21  1  0
 20 22  1  0
 20 23  1  0
 23 24  2  0
 23 25  1  0
 25 18  1  0
M  END
> <Identifier>
C17-azlactone

> <SkinReaction>
1

$$$$

     RDKit          2D

 14 14  0  0  0  0  0  0  0  0999 V2000
   -6.8665    0.7398    0.0000 C   0  0  0  0  0  0  0  0  0  0  0  0
   -5.7016   -0.2051    0.0000 C   0  0  0  0  0  0  0  0  0  0  0  0
   -4.3008    0.3312    0.0000 C   0  0  0  0  0  0  0  0  0  0  0  0
   -3.1359   -0.6137    0.0000 C   0  0  0  0  0  0  0  0  0  0  0  0
   -1.7350   -0.0774    0.0000 C   0  0  0  0  0  0  0  0  0  0  0  0
   -0.5701   -1.0224    0.0000 C   0  0  0  0  0  0  0  0  0  0  0  0
    0.8307   -0.4860    0.0000 C   0  0  0  0  0  0  0  0  0  0  0  0
    2.0880   -1.3040    0.0000 N   0  0  0  0  0  0  0  0  0  0  0  0
    3.2545   -0.3610    0.0000 C   0  0  0  0  0  0  0  0  0  0  0  0
    4.5916    0.3188    0.0000 C   0  0  0  0  0  0  0  0  0  0  0  0
    4.0704   -1.6197    0.0000 C   0  0  0  0  0  0  0  0  0  0  0  0
    2.7182    1.0398    0.0000 C   0  0  0  0  0  0  0  0  0  0  0  0
    3.5362    2.2971    0.0000 O   0  0  0  0  0  0  0  0  0  0  0  0
    1.2202    0.9626    0.0000 O   0  0  0  0  0  0  0  0  0  0  0  0
  1  2  1  0
  2  3  1  0
  3  4  1  0
  4  5  1  0
  5  6  1  0
  6  7  1  0
  7  8  2  0
  8  9  1  0
  9 10  1  0
  9 11  1  0
  9 12  1  0
 12 13  2  0
 12 14  1  0
 14  7  1  0
M  END
> <Identifier>
C6-azlactone

> <SkinReaction>
1

$$$$

     RDKit          2D

 17 17  0  0  0  0  0  0  0  0999 V2000
   -9.1672    0.1316    0.0000 C   0  0  0  0  0  0  0  0  0  0  0  0
   -7.7888    0.7233    0.0000 C   0  0  0  0  0  0  0  0  0  0  0  0
   -6.5872   -0.1745    0.0000 C   0  0  0  0  0  0  0  0  0  0  0  0
   -5.2089    0.4172    0.0000 C   0  0  0  0  0  0  0  0  0  0  0  0
   -4.0072   -0.4806    0.0000 C   0  0  0  0  0  0  0  0  0  0  0  0
   -2.6289    0.1111    0.0000 C   0  0  0  0  0  0  0  0  0  0  0  0
   -1.4273   -0.7867    0.0000 C   0  0  0  0  0  0  0  0  0  0  0  0
   -0.0489   -0.1950    0.0000 C   0  0  0  0  0  0  0  0  0  0  0  0
    1.1527   -1.0928    0.0000 C   0  0  0  0  0  0  0  0  0  0  0  0
    2.5311   -0.5011    0.0000 C   0  0  0  0  0  0  0  0  0  0  0  0
    3.8200   -1.2684    0.0000 N   0  0  0  0  0  0  0  0  0  0  0  0
    4.9480   -0.2797    0.0000 C   0  0  0  0  0  0  0  0  0  0  0  0
    6.2570    0.4528    0.0000 C   0  0  0  0  0  0  0  0  0  0  0  0
    5.8134   -1.5050    0.0000 C   0  0  0  0  0  0  0  0  0  0  0  0
    4.3563    1.0986    0.0000 C   0  0  0  0  0  0  0  0  0  0  0  0
    5.1236    2.3875    0.0000 O   0  0  0  0  0  0  0  0  0  0  0  0
    2.8625    0.9618    0.0000 O   0  0  0  0  0  0  0  0  0  0  0  0
  1  2  1  0
  2  3  1  0
  3  4  1  0
  4  5  1  0
  5  6  1  0
  6  7  1  0
  7  8  1  0
  8  9  1  0
  9 10  1  0
 10 11  2  0
 11 12  1  0
 12 13  1  0
 12 14  1  0
 12 15  1  0
 15 16  2  0
 15 17  1  0
 17 10  1  0
M  END
> <Identifier>
C9-azlactone

> <SkinReaction>
1

$$$$

     RDKit          2D

 12 12  0  0  0  0  0  0  0  0999 V2000
   -2.8873   -1.7918    0.0000 C   0  0  0  0  0  0  0  0  0  0  0  0
   -2.5995   -0.3197    0.0000 C   0  0  0  0  0  0  0  0  0  0  0  0
   -3.7305    0.6657    0.0000 C   0  0  0  0  0  0  0  0  0  0  0  0
   -1.1807    0.1671    0.0000 C   0  0  0  0  0  0  0  0  0  0  0  0
   -0.8928    1.6393    0.0000 C   0  0  0  0  0  0  0  0  0  0  0  0
    0.5260    2.1261    0.0000 C   0  0  0  0  0  0  0  0  0  0  0  0
    1.6570    1.1408    0.0000 C   0  0  0  0  0  0  0  0  0  0  0  0
    3.0758    1.6276    0.0000 C   0  0  0  0  0  0  0  0  0  0  0  0
    1.3692   -0.3314    0.0000 C   0  0  0  0  0  0  0  0  0  0  0  0
    2.5001   -1.3167    0.0000 N   0  0  0  0  0  0  0  0  0  0  0  0
    2.2123   -2.7888    0.0000 O   0  0  0  0  0  0  0  0  0  0  0  0
   -0.0497   -0.8182    0.0000 C   0  0  0  0  0  0  0  0  0  0  0  0
  1  2  2  0
  2  3  1  0
  2  4  1  0
  4  5  1  0
  5  6  1  0
  6  7  1  0
  7  8  1  0
  7  9  2  0
  9 10  1  0
 10 11  2  0
  9 12  1  0
 12  4  1  0
M  END
> <Identifier>
Carvoxime

> <SkinReaction>
1

$$$$

     RDKit          2D

 14 14  0  0  0  0  0  0  0  0999 V2000
   -3.8971   -1.9286    0.0000 N   0  0  0  0  0  0  0  0  0  0  0  0
   -2.5981   -1.1786    0.0000 C   0  0  0  0  0  0  0  0  0  0  0  0
   -1.2990   -0.4286    0.0000 C   0  0  0  0  0  0  0  0  0  0  0  0
   -1.2990    1.0714    0.0000 C   0  0  0  0  0  0  0  0  0  0  0  0
   -2.5981    1.8214    0.0000 Cl  0  0  0  0  0  0  0  0  0  0  0  0
    0.0000    1.8214    0.0000 C   0  0  0  0  0  0  0  0  0  0  0  0
    0.0000    3.3214    0.0000 Cl  0  0  0  0  0  0  0  0  0  0  0  0
    1.2990    1.0714    0.0000 C   0  0  0  0  0  0  0  0  0  0  0  0
    2.5981    1.8214    0.0000 Cl  0  0  0  0  0  0  0  0  0  0  0  0
    1.2990   -0.4286    0.0000 C   0  0  0  0  0  0  0  0  0  0  0  0
    2.5981   -1.1786    0.0000 C   0  0  0  0  0  0  0  0  0  0  0  0
    3.8971   -1.9286    0.0000 N   0  0  0  0  0  0  0  0  0  0  0  0
   -0.0000   -1.1786    0.0000 C   0  0  0  0  0  0  0  0  0  0  0  0
   -0.0000   -2.6786    0.0000 Cl  0  0  0  0  0  0  0  0  0  0  0  0
  1  2  3  0
  2  3  1  0
  3  4  2  0
  4  5  1  0
  4  6  1  0
  6  7  1  0
  6  8  2  0
  8  9  1  0
  8 10  1  0
 10 11  1  0
 11 12  3  0
 10 13  2  0
 13 14  1  0
 13  3  1  0
M  END
> <Identifier>
Chlorothalonil

> <SkinReaction>
1

$$$$

     RDKit          2D

 25 28  0  0  0  0  0  0  0  0999 V2000
   -2.3045    1.3433    0.0000 Cl  0  0  0  0  0  0  0  0  0  0  0  0
   -1.5989    1.7144    0.0000 C   0  0  0  0  0  0  0  0  0  0  0  0
   -1.9043    3.1829    0.0000 C   0  0  0  0  0  0  0  0  0  0  0  0
   -0.7852    4.1817    0.0000 C   0  0  0  0  0  0  0  0  0  0  0  0
    0.6393    3.7119    0.0000 C   0  0  0  0  0  0  0  0  0  0  0  0
    0.9447    2.2433    0.0000 C   0  0  0  0  0  0  0  0  0  0  0  0
   -0.1744    1.2445    0.0000 C   0  0  0  0  0  0  0  0  0  0  0  0
    0.1310   -0.2240    0.0000 C   0  0  0  0  0  0  0  0  0  0  0  0
    1.5996    0.0813    0.0000 C   0  0  0  0  0  0  0  0  0  0  0  0
    2.5983   -1.0378    0.0000 C   0  0  0  0  0  0  0  0  0  0  0  0
    4.0669   -0.7324    0.0000 C   0  0  0  0  0  0  0  0  0  0  0  0
    4.5367    0.6921    0.0000 C   0  0  0  0  0  0  0  0  0  0  0  0
    3.5380    1.8112    0.0000 C   0  0  0  0  0  0  0  0  0  0  0  0
    2.0694    1.5059    0.0000 C   0  0  0  0  0  0  0  0  0  0  0  0
   -1.3376   -0.5294    0.0000 C   0  0  0  0  0  0  0  0  0  0  0  0
   -1.8074   -1.9540    0.0000 C   0  0  0  0  0  0  0  0  0  0  0  0
   -3.2760   -2.2593    0.0000 C   0  0  0  0  0  0  0  0  0  0  0  0
   -4.2748   -1.1402    0.0000 C   0  0  0  0  0  0  0  0  0  0  0  0
   -3.8050    0.2843    0.0000 C   0  0  0  0  0  0  0  0  0  0  0  0
   -2.3364    0.5897    0.0000 C   0  0  0  0  0  0  0  0  0  0  0  0
    0.4364   -1.6926    0.0000 N   0  0  0  0  0  0  0  0  0  0  0  0
    1.8040   -2.3088    0.0000 C   0  0  0  0  0  0  0  0  0  0  0  0
    1.6406   -3.7999    0.0000 C   0  0  0  0  0  0  0  0  0  0  0  0
    0.1720   -4.1052    0.0000 N   0  0  0  0  0  0  0  0  0  0  0  0
   -0.5723   -2.8029    0.0000 C   0  0  0  0  0  0  0  0  0  0  0  0
  1  2  1  0
  2  3  2  0
  3  4  1  0
  4  5  2  0
  5  6  1  0
  6  7  2  0
  7  8  1  0
  8  9  1  0
  9 10  2  0
 10 11  1  0
 11 12  2  0
 12 13  1  0
 13 14  2  0
  8 15  1  0
 15 16  2  0
 16 17  1  0
 17 18  2  0
 18 19  1  0
 19 20  2  0
  8 21  1  0
 21 22  1  0
 22 23  2  0
 23 24  1  0
 24 25  2  0
  7  2  1  0
 14  9  1  0
 20 15  1  0
 25 21  1  0
M  END
> <Identifier>
Clotrimazole

> <SkinReaction>
1

$$$$

     RDKit          2D

 15 16  0  0  0  0  0  0  0  0999 V2000
   -0.0000   -2.0785    0.0000 C   0  0  0  0  0  0  0  0  0  0  0  0
    1.5000   -2.0785    0.0000 N   0  0  0  0  0  0  0  0  0  0  0  0
    2.2500   -0.7794    0.0000 C   0  0  0  0  0  0  0  0  0  0  0  0
    3.7500   -0.7794    0.0000 C   0  0  0  0  0  0  0  0  0  0  0  0
    4.5000    0.5196    0.0000 C   0  0  0  0  0  0  0  0  0  0  0  0
    3.7500    1.8187    0.0000 C   0  0  0  0  0  0  0  0  0  0  0  0
    2.2500    1.8187    0.0000 C   0  0  0  0  0  0  0  0  0  0  0  0
    1.5000    0.5196    0.0000 C   0  0  0  0  0  0  0  0  0  0  0  0
   -1.5000   -2.0785    0.0000 N   0  0  0  0  0  0  0  0  0  0  0  0
   -2.2500   -0.7794    0.0000 C   0  0  0  0  0  0  0  0  0  0  0  0
   -1.5000    0.5196    0.0000 C   0  0  0  0  0  0  0  0  0  0  0  0
   -2.2500    1.8187    0.0000 C   0  0  0  0  0  0  0  0  0  0  0  0
   -3.7500    1.8187    0.0000 C   0  0  0  0  0  0  0  0  0  0  0  0
   -4.5000    0.5196    0.0000 C   0  0  0  0  0  0  0  0  0  0  0  0
   -3.7500   -0.7794    0.0000 C   0  0  0  0  0  0  0  0  0  0  0  0
  1  2  2  0
  2  3  1  0
  3  4  1  0
  4  5  1  0
  5  6  1  0
  6  7  1  0
  7  8  1  0
  1  9  2  0
  9 10  1  0
 10 11  1  0
 11 12  1  0
 12 13  1  0
 13 14  1  0
 14 15  1  0
  8  3  1  0
 15 10  1  0
M  END
> <Identifier>
Dicyclohexylcarbod iimide

> <SkinReaction>
1

$$$$

     RDKit          2D

 12 11  0  0  0  0  0  0  0  0999 V2000
    5.8289    0.5802    0.0000 C   0  0  0  0  0  0  0  0  0  0  0  0
    4.5570   -0.2150    0.0000 C   0  0  0  0  0  0  0  0  0  0  0  0
    3.2324    0.4889    0.0000 O   0  0  0  0  0  0  0  0  0  0  0  0
    1.9605   -0.3063    0.0000 C   0  0  0  0  0  0  0  0  0  0  0  0
    2.0132   -1.8054    0.0000 O   0  0  0  0  0  0  0  0  0  0  0  0
    0.6359    0.3976    0.0000 C   0  0  0  0  0  0  0  0  0  0  0  0
   -0.6359   -0.3976    0.0000 C   0  0  0  0  0  0  0  0  0  0  0  0
   -1.9605    0.3063    0.0000 C   0  0  0  0  0  0  0  0  0  0  0  0
   -2.0132    1.8054    0.0000 O   0  0  0  0  0  0  0  0  0  0  0  0
   -3.2324   -0.4889    0.0000 O   0  0  0  0  0  0  0  0  0  0  0  0
   -4.5570    0.2150    0.0000 C   0  0  0  0  0  0  0  0  0  0  0  0
   -5.8289   -0.5802    0.0000 C   0  0  0  0  0  0  0  0  0  0  0  0
  1  2  1  0
  2  3  1  0
  3  4  1  0
  4  5  2  0
  4  6  1  0
  6  7  2  3
  7  8  1  0
  8  9  2  0
  8 10  1  0
 10 11  1  0
 11 12  1  0
M  END
> <Identifier>
Diethyl maleate

> <SkinReaction>
1

$$$$

     RDKit          2D

 12 12  0  0  0  0  0  0  0  0999 V2000
   -5.0633    0.3993    0.0000 C   0  0  0  0  0  0  0  0  0  0  0  0
   -3.5820    0.6353    0.0000 C   0  0  0  0  0  0  0  0  0  0  0  0
   -2.6370   -0.5296    0.0000 C   0  0  0  0  0  0  0  0  0  0  0  0
   -1.1557   -0.2937    0.0000 C   0  0  0  0  0  0  0  0  0  0  0  0
   -0.6194    1.1071    0.0000 C   0  0  0  0  0  0  0  0  0  0  0  0
    0.8620    1.3431    0.0000 C   0  0  0  0  0  0  0  0  0  0  0  0
    1.8070    0.1782    0.0000 C   0  0  0  0  0  0  0  0  0  0  0  0
    3.2883    0.4141    0.0000 O   0  0  0  0  0  0  0  0  0  0  0  0
    3.8246    1.8150    0.0000 C   0  0  0  0  0  0  0  0  0  0  0  0
    1.2706   -1.2226    0.0000 C   0  0  0  0  0  0  0  0  0  0  0  0
    2.2156   -2.3875    0.0000 O   0  0  0  0  0  0  0  0  0  0  0  0
   -0.2107   -1.4586    0.0000 C   0  0  0  0  0  0  0  0  0  0  0  0
  1  2  1  0
  2  3  1  0
  3  4  1  0
  4  5  2  0
  5  6  1  0
  6  7  2  0
  7  8  1  0
  8  9  1  0
  7 10  1  0
 10 11  1  0
 10 12  2  0
 12  4  1  0
M  END
> <Identifier>
2-methoxy-5-propylphenol

> <SkinReaction>
1

$$$$

     RDKit          2D

  7  6  0  0  0  0  0  0  0  0999 V2000
    2.2500    0.9279    0.0000 C   0  0  0  0  0  0  0  0  0  0  0  0
    1.5000   -0.3712    0.0000 O   0  0  0  0  0  0  0  0  0  0  0  0
    0.0000   -0.3712    0.0000 S   0  0  0  0  0  0  0  0  0  0  0  0
    0.0000   -1.8712    0.0000 O   0  0  0  0  0  0  0  0  0  0  0  0
    0.0000    1.1288    0.0000 O   0  0  0  0  0  0  0  0  0  0  0  0
   -1.5000   -0.3712    0.0000 O   0  0  0  0  0  0  0  0  0  0  0  0
   -2.2500    0.9279    0.0000 C   0  0  0  0  0  0  0  0  0  0  0  0
  1  2  1  0
  2  3  1  0
  3  4  2  0
  3  5  2  0
  3  6  1  0
  6  7  1  0
M  END
> <Identifier>
Dimethyl Sulfate

> <SkinReaction>
1

$$$$

     RDKit          2D

  4  3  0  0  0  0  0  0  0  0999 V2000
   -1.2990   -0.7500    0.0000 C   0  0  0  0  0  0  0  0  0  0  0  0
    0.0000    0.0000    0.0000 S   0  0  0  0  0  0  0  0  0  0  0  0
    1.2990   -0.7500    0.0000 C   0  0  0  0  0  0  0  0  0  0  0  0
    0.0000    1.5000    0.0000 O   0  0  0  0  0  0  0  0  0  0  0  0
  1  2  1  0
  2  3  1  0
  2  4  2  0
M  END
> <Identifier>
Dimethyl sulfoxide

> <SkinReaction>
1

$$$$

     RDKit          2D

 14 15  0  0  0  0  0  0  0  0999 V2000
    0.4963   -0.5702    0.0000 C   0  0  0  0  0  0  0  0  0  0  0  0
    1.1775   -0.1561    0.0000 N   0  0  0  0  0  0  0  0  0  0  0  0
    2.3800   -1.0528    0.0000 C   0  0  0  0  0  0  0  0  0  0  0  0
    3.6043   -0.1862    0.0000 C   0  0  0  0  0  0  0  0  0  0  0  0
    3.1585    1.2460    0.0000 C   0  0  0  0  0  0  0  0  0  0  0  0
    1.6586    1.2646    0.0000 C   0  0  0  0  0  0  0  0  0  0  0  0
    0.1756    0.9821    0.0000 C   0  0  0  0  0  0  0  0  0  0  0  0
   -0.1544   -0.4812    0.0000 C   0  0  0  0  0  0  0  0  0  0  0  0
   -1.5866   -0.9270    0.0000 O   0  0  0  0  0  0  0  0  0  0  0  0
   -2.6888    0.0905    0.0000 S   0  0  0  0  0  0  0  0  0  0  0  0
   -3.7910    1.1079    0.0000 C   0  0  0  0  0  0  0  0  0  0  0  0
   -1.6714    1.1927    0.0000 O   0  0  0  0  0  0  0  0  0  0  0  0
   -3.7063   -1.0117    0.0000 O   0  0  0  0  0  0  0  0  0  0  0  0
    0.9478   -1.4986    0.0000 C   0  0  0  0  0  0  0  0  0  0  0  0
  1  2  1  0
  2  3  1  0
  3  4  1  0
  4  5  1  0
  5  6  1  0
  6  7  1  0
  7  8  1  0
  8  9  1  0
  9 10  1  0
 10 11  1  0
 10 12  2  0
 10 13  2  0
  8 14  1  0
  6  2  1  0
 14  3  1  0
M  END
> <Identifier>
Endo-tropine-3- mesylate

> <SkinReaction>
1

$$$$

     RDKit          2D

 12 12  0  0  0  0  0  0  0  0999 V2000
   -4.8249    1.2570    0.0000 C   0  0  0  0  0  0  0  0  0  0  0  0
   -3.8110    0.1515    0.0000 C   0  0  0  0  0  0  0  0  0  0  0  0
   -2.3467    0.4768    0.0000 O   0  0  0  0  0  0  0  0  0  0  0  0
   -1.3329   -0.6287    0.0000 C   0  0  0  0  0  0  0  0  0  0  0  0
   -1.7834   -2.0595    0.0000 O   0  0  0  0  0  0  0  0  0  0  0  0
    0.1314   -0.3035    0.0000 C   0  0  0  0  0  0  0  0  0  0  0  0
    0.5819    1.1273    0.0000 C   0  0  0  0  0  0  0  0  0  0  0  0
    2.0462    1.4525    0.0000 C   0  0  0  0  0  0  0  0  0  0  0  0
    3.0601    0.3470    0.0000 C   0  0  0  0  0  0  0  0  0  0  0  0
    4.5244    0.6723    0.0000 I   0  0  0  0  0  0  0  0  0  0  0  0
    2.6096   -1.0837    0.0000 C   0  0  0  0  0  0  0  0  0  0  0  0
    1.1453   -1.4090    0.0000 C   0  0  0  0  0  0  0  0  0  0  0  0
  1  2  1  0
  2  3  1  0
  3  4  1  0
  4  5  2  0
  4  6  1  0
  6  7  2  0
  7  8  1  0
  8  9  2  0
  9 10  1  0
  9 11  1  0
 11 12  2  0
 12  6  1  0
M  END
> <Identifier>
Ethyl 4-iodobenzoate

> <SkinReaction>
1

$$$$

     RDKit          2D

 21 20  0  0  0  0  0  0  0  0999 V2000
    5.8584    2.7443    0.0000 C   0  0  0  0  0  0  0  0  0  0  0  0
    4.7104    1.7788    0.0000 C   0  0  0  0  0  0  0  0  0  0  0  0
    3.3003    2.2904    0.0000 C   0  0  0  0  0  0  0  0  0  0  0  0
    3.0382    3.7673    0.0000 O   0  0  0  0  0  0  0  0  0  0  0  0
    2.1523    1.3250    0.0000 O   0  0  0  0  0  0  0  0  0  0  0  0
    0.7422    1.8365    0.0000 C   0  0  0  0  0  0  0  0  0  0  0  0
   -0.4059    0.8711    0.0000 C   0  0  0  0  0  0  0  0  0  0  0  0
   -1.8159    1.3826    0.0000 C   0  0  0  0  0  0  0  0  0  0  0  0
   -2.9640    0.4172    0.0000 O   0  0  0  0  0  0  0  0  0  0  0  0
   -4.3741    0.9287    0.0000 C   0  0  0  0  0  0  0  0  0  0  0  0
   -4.6361    2.4056    0.0000 O   0  0  0  0  0  0  0  0  0  0  0  0
   -5.5221   -0.0367    0.0000 C   0  0  0  0  0  0  0  0  0  0  0  0
   -6.9322    0.4748    0.0000 C   0  0  0  0  0  0  0  0  0  0  0  0
   -0.1438   -0.6059    0.0000 C   0  0  0  0  0  0  0  0  0  0  0  0
   -1.2918   -1.5713    0.0000 C   0  0  0  0  0  0  0  0  0  0  0  0
   -1.0298   -3.0482    0.0000 C   0  0  0  0  0  0  0  0  0  0  0  0
    1.2663   -1.1174    0.0000 O   0  0  0  0  0  0  0  0  0  0  0  0
    1.5283   -2.5943    0.0000 C   0  0  0  0  0  0  0  0  0  0  0  0
    0.3803   -3.5597    0.0000 O   0  0  0  0  0  0  0  0  0  0  0  0
    2.9384   -3.1058    0.0000 C   0  0  0  0  0  0  0  0  0  0  0  0
    3.2005   -4.5828    0.0000 C   0  0  0  0  0  0  0  0  0  0  0  0
  1  2  2  0
  2  3  1  0
  3  4  2  0
  3  5  1  0
  5  6  1  0
  6  7  1  0
  7  8  1  0
  8  9  1  0
  9 10  1  0
 10 11  2  0
 10 12  1  0
 12 13  2  0
  7 14  1  0
 14 15  1  0
 15 16  1  0
 14 17  1  0
 17 18  1  0
 18 19  2  0
 18 20  1  0
 20 21  2  0
M  END
> <Identifier>
1-(Prop-2-enoyloxy)-2-[(prop-2-enoyloxy)methyl]pentan-3-yl prop-2-enoate

> <SkinReaction>
1

$$$$

     RDKit          2D

  4  3  0  0  0  0  0  0  0  0999 V2000
    1.9796   -0.1365    0.0000 N   0  0  0  0  0  0  0  0  0  0  0  0
    0.5994    0.4508    0.0000 C   0  0  0  0  0  0  0  0  0  0  0  0
   -0.5994   -0.4508    0.0000 C   0  0  0  0  0  0  0  0  0  0  0  0
   -1.9796    0.1365    0.0000 N   0  0  0  0  0  0  0  0  0  0  0  0
  1  2  1  0
  2  3  1  0
  3  4  1  0
M  END
> <Identifier>
Ethylenediamine

> <SkinReaction>
1

$$$$

     RDKit          2D

 16 15  0  0  0  0  0  0  0  0999 V2000
   -6.9381   -0.6766    0.0000 C   0  0  0  0  0  0  0  0  0  0  0  0
   -5.4403   -0.7587    0.0000 C   0  0  0  0  0  0  0  0  0  0  0  0
   -4.7626   -2.0969    0.0000 C   0  0  0  0  0  0  0  0  0  0  0  0
   -4.6203    0.4973    0.0000 C   0  0  0  0  0  0  0  0  0  0  0  0
   -3.1226    0.4152    0.0000 C   0  0  0  0  0  0  0  0  0  0  0  0
   -2.3026    1.6712    0.0000 C   0  0  0  0  0  0  0  0  0  0  0  0
   -0.8048    1.5891    0.0000 C   0  0  0  0  0  0  0  0  0  0  0  0
    0.0152    2.8451    0.0000 C   0  0  0  0  0  0  0  0  0  0  0  0
   -0.1271    0.2509    0.0000 C   0  0  0  0  0  0  0  0  0  0  0  0
    1.3707    0.1688    0.0000 C   0  0  0  0  0  0  0  0  0  0  0  0
    2.0484   -1.1694    0.0000 C   0  0  0  0  0  0  0  0  0  0  0  0
    3.5462   -1.2515    0.0000 C   0  0  0  0  0  0  0  0  0  0  0  0
    4.2239   -2.5897    0.0000 C   0  0  0  0  0  0  0  0  0  0  0  0
    4.3662    0.0045    0.0000 C   0  0  0  0  0  0  0  0  0  0  0  0
    5.8639   -0.0776    0.0000 C   0  0  0  0  0  0  0  0  0  0  0  0
    6.6839    1.1784    0.0000 O   0  0  0  0  0  0  0  0  0  0  0  0
  1  2  1  0
  2  3  1  0
  2  4  2  0
  4  5  1  0
  5  6  1  0
  6  7  1  0
  7  8  1  0
  7  9  2  3
  9 10  1  0
 10 11  1  0
 11 12  1  0
 12 13  1  0
 12 14  2  3
 14 15  1  0
 15 16  2  0
M  END
> <Identifier>
Farnesal

> <SkinReaction>
1

$$$$

     RDKit          2D

 11 10  0  0  0  0  0  0  0  0999 V2000
   -4.7844    0.0062    0.0000 C   0  0  0  0  0  0  0  0  0  0  0  0
   -3.3313   -0.3660    0.0000 C   0  0  0  0  0  0  0  0  0  0  0  0
   -2.9270   -1.8104    0.0000 C   0  0  0  0  0  0  0  0  0  0  0  0
   -2.2825    0.7064    0.0000 C   0  0  0  0  0  0  0  0  0  0  0  0
   -0.8294    0.3343    0.0000 C   0  0  0  0  0  0  0  0  0  0  0  0
    0.2195    1.4067    0.0000 C   0  0  0  0  0  0  0  0  0  0  0  0
    1.6726    1.0345    0.0000 C   0  0  0  0  0  0  0  0  0  0  0  0
    2.7214    2.1069    0.0000 C   0  0  0  0  0  0  0  0  0  0  0  0
    2.0769   -0.4099    0.0000 C   0  0  0  0  0  0  0  0  0  0  0  0
    3.5300   -0.7821    0.0000 C   0  0  0  0  0  0  0  0  0  0  0  0
    3.9343   -2.2266    0.0000 O   0  0  0  0  0  0  0  0  0  0  0  0
  1  2  1  0
  2  3  1  0
  2  4  2  0
  4  5  1  0
  5  6  1  0
  6  7  1  0
  7  8  1  0
  7  9  2  3
  9 10  1  0
 10 11  1  0
M  END
> <Identifier>
Geraniol

> <SkinReaction>
1

$$$$

     RDKit          2D

  7  6  0  0  0  0  0  0  0  0999 V2000
   -3.8971    0.3214    0.0000 O   0  0  0  0  0  0  0  0  0  0  0  0
   -2.5981   -0.4286    0.0000 C   0  0  0  0  0  0  0  0  0  0  0  0
   -1.2990    0.3214    0.0000 C   0  0  0  0  0  0  0  0  0  0  0  0
    0.0000   -0.4286    0.0000 C   0  0  0  0  0  0  0  0  0  0  0  0
    1.2990    0.3214    0.0000 C   0  0  0  0  0  0  0  0  0  0  0  0
    2.5981   -0.4286    0.0000 C   0  0  0  0  0  0  0  0  0  0  0  0
    3.8971    0.3214    0.0000 O   0  0  0  0  0  0  0  0  0  0  0  0
  1  2  2  0
  2  3  1  0
  3  4  1  0
  4  5  1  0
  5  6  1  0
  6  7  2  0
M  END
> <Identifier>
Glutaraldehyde

> <SkinReaction>
1

$$$$

     RDKit          2D

 10  9  0  0  0  0  0  0  0  0999 V2000
    2.1731   -1.6094    0.0000 O   0  0  0  0  0  0  0  0  0  0  0  0
    1.9806   -0.1218    0.0000 C   0  0  0  0  0  0  0  0  0  0  0  0
    3.1726    0.7888    0.0000 C   0  0  0  0  0  0  0  0  0  0  0  0
    4.5572    0.2117    0.0000 S   0  0  0  0  0  0  0  0  0  0  0  0
    0.5960    0.4553    0.0000 O   0  0  0  0  0  0  0  0  0  0  0  0
   -0.5960   -0.4553    0.0000 C   0  0  0  0  0  0  0  0  0  0  0  0
   -1.9806    0.1218    0.0000 C   0  0  0  0  0  0  0  0  0  0  0  0
   -2.1731    1.6094    0.0000 O   0  0  0  0  0  0  0  0  0  0  0  0
   -3.1726   -0.7888    0.0000 C   0  0  0  0  0  0  0  0  0  0  0  0
   -4.5572   -0.2117    0.0000 O   0  0  0  0  0  0  0  0  0  0  0  0
  1  2  2  0
  2  3  1  0
  3  4  1  0
  2  5  1  0
  5  6  1  0
  6  7  1  0
  7  8  1  0
  7  9  1  0
  9 10  1  0
M  END
> <Identifier>
Glyceryl thioglycolate

> <SkinReaction>
1

$$$$

     RDKit          2D

  4  3  0  0  0  0  0  0  0  0999 V2000
    1.9796   -0.1365    0.0000 O   0  0  0  0  0  0  0  0  0  0  0  0
    0.5994    0.4508    0.0000 C   0  0  0  0  0  0  0  0  0  0  0  0
   -0.5994   -0.4508    0.0000 C   0  0  0  0  0  0  0  0  0  0  0  0
   -1.9796    0.1365    0.0000 O   0  0  0  0  0  0  0  0  0  0  0  0
  1  2  2  0
  2  3  1  0
  3  4  2  0
M  END
> <Identifier>
Glyoxal

> <SkinReaction>
1

$$$$

     RDKit          2D

  7  6  0  0  0  0  0  0  0  0999 V2000
   -3.8971    0.3214    0.0000 N   0  0  0  0  0  0  0  0  0  0  0  0
   -2.5981   -0.4286    0.0000 C   0  0  0  0  0  0  0  0  0  0  0  0
   -1.2990    0.3214    0.0000 C   0  0  0  0  0  0  0  0  0  0  0  0
    0.0000   -0.4286    0.0000 N   0  0  0  0  0  0  0  0  0  0  0  0
    1.2990    0.3214    0.0000 C   0  0  0  0  0  0  0  0  0  0  0  0
    2.5981   -0.4286    0.0000 C   0  0  0  0  0  0  0  0  0  0  0  0
    3.8971    0.3214    0.0000 O   0  0  0  0  0  0  0  0  0  0  0  0
  1  2  1  0
  2  3  1  0
  3  4  1  0
  4  5  1  0
  5  6  1  0
  6  7  1  0
M  END
> <Identifier>
Hydroxyethyl-ethylenediamine

> <SkinReaction>
1

$$$$

     RDKit          2D

 27 28  0  0  0  0  0  0  0  0999 V2000
    2.7798   -0.8517    0.0000 O   0  0  0  0  0  0  0  0  0  0  0  0
    2.6608    0.6435    0.0000 C   0  0  0  0  0  0  0  0  0  0  0  0
    1.3063    1.2881    0.0000 N   0  0  0  0  0  0  0  0  0  0  0  0
    0.0709    0.4374    0.0000 C   0  0  0  0  0  0  0  0  0  0  0  0
   -1.2836    1.0819    0.0000 N   0  0  0  0  0  0  0  0  0  0  0  0
   -2.5190    0.2312    0.0000 C   0  0  0  0  0  0  0  0  0  0  0  0
   -2.4000   -1.2641    0.0000 O   0  0  0  0  0  0  0  0  0  0  0  0
   -3.8734    0.8757    0.0000 N   0  0  0  0  0  0  0  0  0  0  0  0
   -5.1089    0.0250    0.0000 C   0  0  0  0  0  0  0  0  0  0  0  0
   -5.1468   -1.4745    0.0000 C   0  0  0  0  0  0  0  0  0  0  0  0
   -3.9559   -2.3866    0.0000 O   0  0  0  0  0  0  0  0  0  0  0  0
   -6.5846   -1.9018    0.0000 N   0  0  0  0  0  0  0  0  0  0  0  0
   -7.4354   -0.6664    0.0000 C   0  0  0  0  0  0  0  0  0  0  0  0
   -8.9349   -0.6285    0.0000 O   0  0  0  0  0  0  0  0  0  0  0  0
   -6.5233    0.5244    0.0000 N   0  0  0  0  0  0  0  0  0  0  0  0
   -6.9506    1.9623    0.0000 C   0  0  0  0  0  0  0  0  0  0  0  0
   -5.9191    3.0513    0.0000 O   0  0  0  0  0  0  0  0  0  0  0  0
    3.8962    1.4943    0.0000 N   0  0  0  0  0  0  0  0  0  0  0  0
    5.2507    0.8497    0.0000 C   0  0  0  0  0  0  0  0  0  0  0  0
    6.5682    1.5667    0.0000 C   0  0  0  0  0  0  0  0  0  0  0  0
    6.7627    3.0540    0.0000 O   0  0  0  0  0  0  0  0  0  0  0  0
    7.6572    0.5351    0.0000 N   0  0  0  0  0  0  0  0  0  0  0  0
    7.0127   -0.8194    0.0000 C   0  0  0  0  0  0  0  0  0  0  0  0
    7.7296   -2.1369    0.0000 O   0  0  0  0  0  0  0  0  0  0  0  0
    5.5253   -0.6249    0.0000 N   0  0  0  0  0  0  0  0  0  0  0  0
    4.4938   -1.7139    0.0000 C   0  0  0  0  0  0  0  0  0  0  0  0
    4.9211   -3.1517    0.0000 O   0  0  0  0  0  0  0  0  0  0  0  0
  1  2  2  0
  2  3  1  0
  3  4  1  0
  4  5  1  0
  5  6  1  0
  6  7  2  0
  6  8  1  0
  8  9  1  0
  9 10  1  0
 10 11  2  0
 10 12  1  0
 12 13  1  0
 13 14  2  0
 13 15  1  0
 15 16  1  0
 16 17  1  0
  2 18  1  0
 18 19  1  0
 19 20  1  0
 20 21  2  0
 20 22  1  0
 22 23  1  0
 23 24  2  0
 23 25  1  0
 25 26  1  0
 26 27  1  0
 15  9  1  0
 25 19  1  0
M  END
> <Identifier>
Imidazolidinyl urea

> <SkinReaction>
1

$$$$

     RDKit          2D

 12 11  0  0  0  0  0  0  0  0999 V2000
   -6.5538   -0.0354    0.0000 C   0  0  0  0  0  0  0  0  0  0  0  0
   -5.1693    0.5419    0.0000 C   0  0  0  0  0  0  0  0  0  0  0  0
   -3.9771   -0.3684    0.0000 C   0  0  0  0  0  0  0  0  0  0  0  0
   -2.5927    0.2090    0.0000 C   0  0  0  0  0  0  0  0  0  0  0  0
   -1.4005   -0.7013    0.0000 N   0  0  0  0  0  0  0  0  0  0  0  0
   -0.0160   -0.1240    0.0000 C   0  0  0  0  0  0  0  0  0  0  0  0
    0.1762    1.3637    0.0000 O   0  0  0  0  0  0  0  0  0  0  0  0
    1.1762   -1.0343    0.0000 O   0  0  0  0  0  0  0  0  0  0  0  0
    2.5606   -0.4569    0.0000 C   0  0  0  0  0  0  0  0  0  0  0  0
    3.9451    0.1204    0.0000 C   0  0  0  0  0  0  0  0  0  0  0  0
    5.3295    0.6978    0.0000 C   0  0  0  0  0  0  0  0  0  0  0  0
    6.5217   -0.2125    0.0000 I   0  0  0  0  0  0  0  0  0  0  0  0
  1  2  1  0
  2  3  1  0
  3  4  1  0
  4  5  1  0
  5  6  1  0
  6  7  2  0
  6  8  1  0
  8  9  1  0
  9 10  3  0
 10 11  1  0
 11 12  1  0
M  END
> <Identifier>
Iodopropynyl butylcarbamate

> <SkinReaction>
1

$$$$

     RDKit          2D

 15 15  0  0  0  0  0  0  0  0999 V2000
    5.5916   -1.2507    0.0000 C   0  0  0  0  0  0  0  0  0  0  0  0
    4.0916   -1.2405    0.0000 C   0  0  0  0  0  0  0  0  0  0  0  0
    3.3505    0.0637    0.0000 C   0  0  0  0  0  0  0  0  0  0  0  0
    1.8505    0.0739    0.0000 C   0  0  0  0  0  0  0  0  0  0  0  0
    1.0917   -1.2199    0.0000 C   0  0  0  0  0  0  0  0  0  0  0  0
   -0.4083   -1.2097    0.0000 C   0  0  0  0  0  0  0  0  0  0  0  0
   -1.1494    0.0945    0.0000 C   0  0  0  0  0  0  0  0  0  0  0  0
   -2.6493    0.1047    0.0000 O   0  0  0  0  0  0  0  0  0  0  0  0
   -3.4082   -1.1891    0.0000 C   0  0  0  0  0  0  0  0  0  0  0  0
   -4.9082   -1.1789    0.0000 C   0  0  0  0  0  0  0  0  0  0  0  0
   -2.6671   -2.4933    0.0000 C   0  0  0  0  0  0  0  0  0  0  0  0
   -0.3905    1.3883    0.0000 C   0  0  0  0  0  0  0  0  0  0  0  0
   -1.1316    2.6925    0.0000 O   0  0  0  0  0  0  0  0  0  0  0  0
   -0.3727    3.9864    0.0000 C   0  0  0  0  0  0  0  0  0  0  0  0
    1.1095    1.3781    0.0000 C   0  0  0  0  0  0  0  0  0  0  0  0
  1  2  1  0
  2  3  2  3
  3  4  1  0
  4  5  2  0
  5  6  1  0
  6  7  2  0
  7  8  1  0
  8  9  1  0
  9 10  1  0
  9 11  1  0
  7 12  1  0
 12 13  1  0
 13 14  1  0
 12 15  2  0
 15  4  1  0
M  END
> <Identifier>
5-(prop-1-en-1-yl)-2-(propan-2-yloxy)phenol

> <SkinReaction>
1

$$$$

     RDKit          2D

 17 16  0  0  0  0  0  0  0  0999 V2000
  -10.0198   -0.2096    0.0000 C   0  0  0  0  0  0  0  0  0  0  0  0
   -8.7006    0.5043    0.0000 C   0  0  0  0  0  0  0  0  0  0  0  0
   -7.4227   -0.2811    0.0000 C   0  0  0  0  0  0  0  0  0  0  0  0
   -6.1035    0.4328    0.0000 C   0  0  0  0  0  0  0  0  0  0  0  0
   -4.8256   -0.3526    0.0000 C   0  0  0  0  0  0  0  0  0  0  0  0
   -3.5064    0.3613    0.0000 C   0  0  0  0  0  0  0  0  0  0  0  0
   -2.2285   -0.4241    0.0000 C   0  0  0  0  0  0  0  0  0  0  0  0
   -0.9093    0.2898    0.0000 C   0  0  0  0  0  0  0  0  0  0  0  0
    0.3686   -0.4956    0.0000 C   0  0  0  0  0  0  0  0  0  0  0  0
    1.6878    0.2183    0.0000 C   0  0  0  0  0  0  0  0  0  0  0  0
    2.9657   -0.5671    0.0000 C   0  0  0  0  0  0  0  0  0  0  0  0
    4.2848    0.1468    0.0000 C   0  0  0  0  0  0  0  0  0  0  0  0
    5.5628   -0.6386    0.0000 O   0  0  0  0  0  0  0  0  0  0  0  0
    6.8819    0.0754    0.0000 S   0  0  0  0  0  0  0  0  0  0  0  0
    6.1680    1.3945    0.0000 O   0  0  0  0  0  0  0  0  0  0  0  0
    7.5959   -1.2438    0.0000 O   0  0  0  0  0  0  0  0  0  0  0  0
    8.2011    0.7893    0.0000 O   0  0  0  0  0  0  0  0  0  0  0  0
  1  2  1  0
  2  3  1  0
  3  4  1  0
  4  5  1  0
  5  6  1  0
  6  7  1  0
  7  8  1  0
  8  9  1  0
  9 10  1  0
 10 11  1  0
 11 12  1  0
 12 13  1  0
 13 14  1  0
 14 15  2  0
 14 16  2  0
 14 17  1  0
M  END
> <Identifier>
Lauryl sulfate

> <SkinReaction>
1

$$$$

     RDKit          2D

 20 19  0  0  0  0  0  0  0  0999 V2000
  -12.2170   -0.2342    0.0000 C   0  0  0  0  0  0  0  0  0  0  0  0
  -10.9049    0.4927    0.0000 C   0  0  0  0  0  0  0  0  0  0  0  0
   -9.6193   -0.2801    0.0000 C   0  0  0  0  0  0  0  0  0  0  0  0
   -8.3072    0.4468    0.0000 C   0  0  0  0  0  0  0  0  0  0  0  0
   -7.0217   -0.3260    0.0000 C   0  0  0  0  0  0  0  0  0  0  0  0
   -5.7096    0.4009    0.0000 C   0  0  0  0  0  0  0  0  0  0  0  0
   -4.4240   -0.3719    0.0000 C   0  0  0  0  0  0  0  0  0  0  0  0
   -3.1119    0.3550    0.0000 C   0  0  0  0  0  0  0  0  0  0  0  0
   -1.8263   -0.4178    0.0000 C   0  0  0  0  0  0  0  0  0  0  0  0
   -0.5142    0.3091    0.0000 C   0  0  0  0  0  0  0  0  0  0  0  0
    0.7714   -0.4637    0.0000 C   0  0  0  0  0  0  0  0  0  0  0  0
    2.0834    0.2632    0.0000 C   0  0  0  0  0  0  0  0  0  0  0  0
    3.3690   -0.5096    0.0000 C   0  0  0  0  0  0  0  0  0  0  0  0
    4.6811    0.2173    0.0000 C   0  0  0  0  0  0  0  0  0  0  0  0
    5.9667   -0.5555    0.0000 C   0  0  0  0  0  0  0  0  0  0  0  0
    7.2788    0.1714    0.0000 C   0  0  0  0  0  0  0  0  0  0  0  0
    8.5644   -0.6014    0.0000 C   0  0  0  0  0  0  0  0  0  0  0  0
    9.8764    0.1255    0.0000 C   0  0  0  0  0  0  0  0  0  0  0  0
    9.9029    1.6253    0.0000 O   0  0  0  0  0  0  0  0  0  0  0  0
   11.1620   -0.6473    0.0000 O   0  0  0  0  0  0  0  0  0  0  0  0
  1  2  1  0
  2  3  1  0
  3  4  2  3
  4  5  1  0
  5  6  1  0
  6  7  2  3
  7  8  1  0
  8  9  1  0
  9 10  2  3
 10 11  1  0
 11 12  1  0
 12 13  1  0
 13 14  1  0
 14 15  1  0
 15 16  1  0
 16 17  1  0
 17 18  1  0
 18 19  2  0
 18 20  1  0
M  END
> <Identifier>
Linolenic acid

> <SkinReaction>
1

$$$$

     RDKit          2D

 12 12  0  0  0  0  0  0  0  0999 V2000
   -4.6451    0.6002    0.0000 C   0  0  0  0  0  0  0  0  0  0  0  0
   -3.1626    0.8281    0.0000 O   0  0  0  0  0  0  0  0  0  0  0  0
   -2.2239   -0.3419    0.0000 C   0  0  0  0  0  0  0  0  0  0  0  0
   -2.7678   -1.7398    0.0000 O   0  0  0  0  0  0  0  0  0  0  0  0
   -0.7413   -0.1140    0.0000 C   0  0  0  0  0  0  0  0  0  0  0  0
   -0.1974    1.2840    0.0000 C   0  0  0  0  0  0  0  0  0  0  0  0
    1.2852    1.5119    0.0000 C   0  0  0  0  0  0  0  0  0  0  0  0
    2.2239    0.3419    0.0000 C   0  0  0  0  0  0  0  0  0  0  0  0
    3.7065    0.5698    0.0000 C   0  0  0  0  0  0  0  0  0  0  0  0
    4.6451   -0.6002    0.0000 Br  0  0  0  0  0  0  0  0  0  0  0  0
    1.6800   -1.0560    0.0000 C   0  0  0  0  0  0  0  0  0  0  0  0
    0.1974   -1.2840    0.0000 C   0  0  0  0  0  0  0  0  0  0  0  0
  1  2  1  0
  2  3  1  0
  3  4  2  0
  3  5  1  0
  5  6  2  0
  6  7  1  0
  7  8  2  0
  8  9  1  0
  9 10  1  0
  8 11  1  0
 11 12  2  0
 12  5  1  0
M  END
> <Identifier>
Methyl 4-(bromomethyl)benzoate

> <SkinReaction>
1

$$$$

     RDKit          2D

 17 16  0  0  0  0  0  0  0  0999 V2000
    9.7616    0.6226    0.0000 C   0  0  0  0  0  0  0  0  0  0  0  0
    8.5054   -0.1973    0.0000 C   0  0  0  0  0  0  0  0  0  0  0  0
    7.1674    0.4806    0.0000 C   0  0  0  0  0  0  0  0  0  0  0  0
    5.9112   -0.3393    0.0000 C   0  0  0  0  0  0  0  0  0  0  0  0
    4.5732    0.3386    0.0000 C   0  0  0  0  0  0  0  0  0  0  0  0
    3.3171   -0.4812    0.0000 C   0  0  0  0  0  0  0  0  0  0  0  0
    1.9790    0.1967    0.0000 C   0  0  0  0  0  0  0  0  0  0  0  0
    0.7229   -0.6232    0.0000 C   0  0  0  0  0  0  0  0  0  0  0  0
   -0.6152    0.0547    0.0000 C   0  0  0  0  0  0  0  0  0  0  0  0
   -1.8713   -0.7652    0.0000 C   0  0  0  0  0  0  0  0  0  0  0  0
   -3.2094   -0.0873    0.0000 C   0  0  0  0  0  0  0  0  0  0  0  0
   -4.4655   -0.9071    0.0000 C   0  0  0  0  0  0  0  0  0  0  0  0
   -5.8036   -0.2292    0.0000 S   0  0  0  0  0  0  0  0  0  0  0  0
   -6.4815   -1.5673    0.0000 O   0  0  0  0  0  0  0  0  0  0  0  0
   -5.1257    1.1088    0.0000 O   0  0  0  0  0  0  0  0  0  0  0  0
   -7.1417    0.4487    0.0000 O   0  0  0  0  0  0  0  0  0  0  0  0
   -7.2237    1.9464    0.0000 C   0  0  0  0  0  0  0  0  0  0  0  0
  1  2  1  0
  2  3  1  0
  3  4  1  0
  4  5  1  0
  5  6  1  0
  6  7  1  0
  7  8  1  0
  8  9  1  0
  9 10  1  0
 10 11  1  0
 11 12  1  0
 12 13  1  0
 13 14  2  0
 13 15  2  0
 13 16  1  0
 16 17  1  0
M  END
> <Identifier>
Methyl dodecanesulfonate

> <SkinReaction>
1

$$$$

     RDKit          2D

 21 20  0  0  0  0  0  0  0  0999 V2000
   12.4819    0.6011    0.0000 C   0  0  0  0  0  0  0  0  0  0  0  0
   11.2112   -0.1961    0.0000 C   0  0  0  0  0  0  0  0  0  0  0  0
    9.8855    0.5058    0.0000 C   0  0  0  0  0  0  0  0  0  0  0  0
    8.6149   -0.2914    0.0000 C   0  0  0  0  0  0  0  0  0  0  0  0
    7.2892    0.4105    0.0000 C   0  0  0  0  0  0  0  0  0  0  0  0
    6.0185   -0.3867    0.0000 C   0  0  0  0  0  0  0  0  0  0  0  0
    4.6929    0.3152    0.0000 C   0  0  0  0  0  0  0  0  0  0  0  0
    3.4222   -0.4820    0.0000 C   0  0  0  0  0  0  0  0  0  0  0  0
    2.0965    0.2199    0.0000 C   0  0  0  0  0  0  0  0  0  0  0  0
    0.8259   -0.5772    0.0000 C   0  0  0  0  0  0  0  0  0  0  0  0
   -0.4998    0.1246    0.0000 C   0  0  0  0  0  0  0  0  0  0  0  0
   -1.7704   -0.6725    0.0000 C   0  0  0  0  0  0  0  0  0  0  0  0
   -3.0961    0.0293    0.0000 C   0  0  0  0  0  0  0  0  0  0  0  0
   -4.3668   -0.7678    0.0000 C   0  0  0  0  0  0  0  0  0  0  0  0
   -5.6924   -0.0660    0.0000 C   0  0  0  0  0  0  0  0  0  0  0  0
   -6.9631   -0.8631    0.0000 C   0  0  0  0  0  0  0  0  0  0  0  0
   -8.2888   -0.1613    0.0000 S   0  0  0  0  0  0  0  0  0  0  0  0
   -8.9906   -1.4869    0.0000 O   0  0  0  0  0  0  0  0  0  0  0  0
   -7.5869    1.1644    0.0000 O   0  0  0  0  0  0  0  0  0  0  0  0
   -9.6144    0.5406    0.0000 O   0  0  0  0  0  0  0  0  0  0  0  0
   -9.6694    2.0396    0.0000 C   0  0  0  0  0  0  0  0  0  0  0  0
  1  2  1  0
  2  3  1  0
  3  4  1  0
  4  5  1  0
  5  6  1  0
  6  7  1  0
  7  8  1  0
  8  9  1  0
  9 10  1  0
 10 11  1  0
 11 12  1  0
 12 13  1  0
 13 14  1  0
 14 15  1  0
 15 16  1  0
 16 17  1  0
 17 18  2  0
 17 19  2  0
 17 20  1  0
 20 21  1  0
M  END
> <Identifier>
Methyl hexadecane sulfonate

> <SkinReaction>
1

$$$$

     RDKit          2D

  6  5  0  0  0  0  0  0  0  0999 V2000
   -2.1651    0.0000    0.0000 C   0  0  0  0  0  0  0  0  0  0  0  0
   -0.8660    0.7500    0.0000 O   0  0  0  0  0  0  0  0  0  0  0  0
    0.4330   -0.0000    0.0000 S   0  0  0  0  0  0  0  0  0  0  0  0
    1.7321   -0.7500    0.0000 C   0  0  0  0  0  0  0  0  0  0  0  0
   -0.3170   -1.2990    0.0000 O   0  0  0  0  0  0  0  0  0  0  0  0
    1.1830    1.2990    0.0000 O   0  0  0  0  0  0  0  0  0  0  0  0
  1  2  1  0
  2  3  1  0
  3  4  1  0
  3  5  2  0
  3  6  2  0
M  END
> <Identifier>
Methyl methanesulfonate

> <SkinReaction>
1

$$$$

     RDKit          2D

  7  6  0  0  0  0  0  0  0  0999 V2000
   -2.7865    0.2956    0.0000 C   0  0  0  0  0  0  0  0  0  0  0  0
   -1.3548    0.7431    0.0000 O   0  0  0  0  0  0  0  0  0  0  0  0
   -0.2514   -0.2730    0.0000 C   0  0  0  0  0  0  0  0  0  0  0  0
   -0.5797   -1.7367    0.0000 O   0  0  0  0  0  0  0  0  0  0  0  0
    1.1803    0.1745    0.0000 C   0  0  0  0  0  0  0  0  0  0  0  0
    2.2837   -0.8417    0.0000 C   0  0  0  0  0  0  0  0  0  0  0  0
    1.5086    1.6381    0.0000 O   0  0  0  0  0  0  0  0  0  0  0  0
  1  2  1  0
  2  3  1  0
  3  4  2  0
  3  5  1  0
  5  6  1  0
  5  7  2  0
M  END
> <Identifier>
Methyl pyruvate

> <SkinReaction>
1

$$$$

     RDKit          2D

 26 25  0  0  0  0  0  0  0  0999 V2000
   14.5725    0.6996    0.0000 C   0  0  0  0  0  0  0  0  0  0  0  0
   13.3142   -0.1168    0.0000 C   0  0  0  0  0  0  0  0  0  0  0  0
   11.9780    0.5648    0.0000 C   0  0  0  0  0  0  0  0  0  0  0  0
   10.7196   -0.2517    0.0000 C   0  0  0  0  0  0  0  0  0  0  0  0
    9.3834    0.4299    0.0000 C   0  0  0  0  0  0  0  0  0  0  0  0
    8.1250   -0.3865    0.0000 C   0  0  0  0  0  0  0  0  0  0  0  0
    6.7888    0.2951    0.0000 C   0  0  0  0  0  0  0  0  0  0  0  0
    5.5304   -0.5213    0.0000 C   0  0  0  0  0  0  0  0  0  0  0  0
    4.1942    0.1602    0.0000 C   0  0  0  0  0  0  0  0  0  0  0  0
    2.9359   -0.6562    0.0000 C   0  0  0  0  0  0  0  0  0  0  0  0
    1.5997    0.0254    0.0000 C   0  0  0  0  0  0  0  0  0  0  0  0
    0.3413   -0.7910    0.0000 C   0  0  0  0  0  0  0  0  0  0  0  0
   -0.9949   -0.1095    0.0000 C   0  0  0  0  0  0  0  0  0  0  0  0
   -2.2533   -0.9259    0.0000 C   0  0  0  0  0  0  0  0  0  0  0  0
   -3.5895   -0.2443    0.0000 C   0  0  0  0  0  0  0  0  0  0  0  0
   -4.8479   -1.0607    0.0000 C   0  0  0  0  0  0  0  0  0  0  0  0
   -6.1841   -0.3792    0.0000 C   0  0  0  0  0  0  0  0  0  0  0  0
   -6.2619    1.1188    0.0000 C   0  0  0  0  0  0  0  0  0  0  0  0
   -7.5981    1.8004    0.0000 S   0  0  0  0  0  0  0  0  0  0  0  0
   -6.9166    3.1366    0.0000 O   0  0  0  0  0  0  0  0  0  0  0  0
   -8.2797    0.4642    0.0000 O   0  0  0  0  0  0  0  0  0  0  0  0
   -8.9344    2.4819    0.0000 O   0  0  0  0  0  0  0  0  0  0  0  0
   -7.4424   -1.1956    0.0000 C   0  0  0  0  0  0  0  0  0  0  0  0
   -7.3646   -2.6936    0.0000 O   0  0  0  0  0  0  0  0  0  0  0  0
   -8.7786   -0.5140    0.0000 O   0  0  0  0  0  0  0  0  0  0  0  0
  -10.0370   -1.3304    0.0000 C   0  0  0  0  0  0  0  0  0  0  0  0
  1  2  1  0
  2  3  1  0
  3  4  1  0
  4  5  1  0
  5  6  1  0
  6  7  1  0
  7  8  1  0
  8  9  1  0
  9 10  1  0
 10 11  1  0
 11 12  1  0
 12 13  1  0
 13 14  1  0
 14 15  1  0
 15 16  1  0
 16 17  1  0
 17 18  1  0
 18 19  1  0
 19 20  2  0
 19 21  2  0
 19 22  1  0
 17 23  1  0
 23 24  2  0
 23 25  1  0
 25 26  1  0
M  END
> <Identifier>
Methyl(2-sulfomethyl)octadecanoate

> <SkinReaction>
1

$$$$

     RDKit          2D

 10 10  0  0  0  0  0  0  0  0999 V2000
   -3.6689   -0.8582    0.0000 N   0  0  0  0  0  0  0  0  0  0  0  0
   -2.2421   -1.3211    0.0000 C   0  0  0  0  0  0  0  0  0  0  0  0
   -1.1279   -0.3169    0.0000 C   0  0  0  0  0  0  0  0  0  0  0  0
   -1.4403    1.1502    0.0000 C   0  0  0  0  0  0  0  0  0  0  0  0
   -0.3261    2.1543    0.0000 C   0  0  0  0  0  0  0  0  0  0  0  0
    1.1007    1.6914    0.0000 C   0  0  0  0  0  0  0  0  0  0  0  0
    1.4132    0.2243    0.0000 C   0  0  0  0  0  0  0  0  0  0  0  0
    2.8400   -0.2386    0.0000 C   0  0  0  0  0  0  0  0  0  0  0  0
    3.1525   -1.7057    0.0000 N   0  0  0  0  0  0  0  0  0  0  0  0
    0.2989   -0.7798    0.0000 C   0  0  0  0  0  0  0  0  0  0  0  0
  1  2  1  0
  2  3  1  0
  3  4  2  0
  4  5  1  0
  5  6  2  0
  6  7  1  0
  7  8  1  0
  8  9  1  0
  7 10  2  0
 10  3  1  0
M  END
> <Identifier>
1,3-benzenedimethanamine

> <SkinReaction>
1

$$$$

     RDKit          2D

 18 18  0  0  0  0  0  0  0  0999 V2000
   -5.2039   -0.6035    0.0000 C   0  0  0  0  0  0  0  0  0  0  0  0
   -3.7625   -1.0188    0.0000 C   0  0  0  0  0  0  0  0  0  0  0  0
   -3.4015   -2.4747    0.0000 C   0  0  0  0  0  0  0  0  0  0  0  0
   -2.6822    0.0218    0.0000 N   0  0  0  0  0  0  0  0  0  0  0  0
   -3.0432    1.4777    0.0000 C   0  0  0  0  0  0  0  0  0  0  0  0
   -1.9628    2.5183    0.0000 N   0  0  0  0  0  0  0  0  0  0  0  0
   -4.4845    1.8930    0.0000 N   0  0  0  0  0  0  0  0  0  0  0  0
   -1.2408   -0.3935    0.0000 C   0  0  0  0  0  0  0  0  0  0  0  0
   -0.8798   -1.8494    0.0000 N   0  0  0  0  0  0  0  0  0  0  0  0
   -0.1605    0.6471    0.0000 N   0  0  0  0  0  0  0  0  0  0  0  0
    1.2809    0.2318    0.0000 C   0  0  0  0  0  0  0  0  0  0  0  0
    1.6419   -1.2241    0.0000 C   0  0  0  0  0  0  0  0  0  0  0  0
    3.0833   -1.6394    0.0000 C   0  0  0  0  0  0  0  0  0  0  0  0
    4.1636   -0.5988    0.0000 C   0  0  0  0  0  0  0  0  0  0  0  0
    5.6050   -1.0142    0.0000 Cl  0  0  0  0  0  0  0  0  0  0  0  0
    3.8026    0.8571    0.0000 C   0  0  0  0  0  0  0  0  0  0  0  0
    4.8830    1.8977    0.0000 Cl  0  0  0  0  0  0  0  0  0  0  0  0
    2.3613    1.2724    0.0000 C   0  0  0  0  0  0  0  0  0  0  0  0
  1  2  1  0
  2  3  1  0
  2  4  1  0
  4  5  1  0
  5  6  2  0
  5  7  1  0
  4  8  1  0
  8  9  2  0
  8 10  1  0
 10 11  1  0
 11 12  2  0
 12 13  1  0
 13 14  2  0
 14 15  1  0
 14 16  1  0
 16 17  1  0
 16 18  2  0
 18 11  1  0
M  END
> <Identifier>
N-(3,4-Dichlorophenyl)-n'- (1-methylethyl)- imidodicarbon-imidic diamide monohydrochloride

> <SkinReaction>
1

$$$$

     RDKit          2D

 47 51  0  0  0  0  0  0  0  0999 V2000
    3.0480    3.4711    0.0000 C   0  0  0  0  0  0  0  0  0  0  0  0
    2.6262    2.0317    0.0000 C   0  0  0  0  0  0  0  0  0  0  0  0
    1.1687    1.6772    0.0000 N   0  0  0  0  0  0  0  0  0  0  0  0
    0.1330    2.7623    0.0000 C   0  0  0  0  0  0  0  0  0  0  0  0
    0.5548    4.2017    0.0000 C   0  0  0  0  0  0  0  0  0  0  0  0
    0.7469    0.2378    0.0000 C   0  0  0  0  0  0  0  0  0  0  0  0
   -0.7106   -0.1167    0.0000 C   0  0  0  0  0  0  0  0  0  0  0  0
   -1.1325   -1.5561    0.0000 N   0  0  0  0  0  0  0  0  0  0  0  0
   -0.0967   -2.6412    0.0000 C   0  0  0  0  0  0  0  0  0  0  0  0
    1.3608   -2.2868    0.0000 C   0  0  0  0  0  0  0  0  0  0  0  0
    2.3965   -3.3718    0.0000 C   0  0  0  0  0  0  0  0  0  0  0  0
    3.8540   -3.0174    0.0000 C   0  0  0  0  0  0  0  0  0  0  0  0
    4.2758   -1.5779    0.0000 C   0  0  0  0  0  0  0  0  0  0  0  0
    5.7334   -1.2235    0.0000 C   0  0  0  0  0  0  0  0  0  0  0  0
    6.7691   -2.3085    0.0000 C   0  0  0  0  0  0  0  0  0  0  0  0
    8.2266   -1.9541    0.0000 C   0  0  0  0  0  0  0  0  0  0  0  0
    8.6484   -0.5146    0.0000 C   0  0  0  0  0  0  0  0  0  0  0  0
   10.1059   -0.1602    0.0000 C   0  0  0  0  0  0  0  0  0  0  0  0
   11.5635    0.1943    0.0000 F   0  0  0  0  0  0  0  0  0  0  0  0
   10.4604   -1.6177    0.0000 F   0  0  0  0  0  0  0  0  0  0  0  0
    9.7515    1.2974    0.0000 F   0  0  0  0  0  0  0  0  0  0  0  0
    7.6127    0.5704    0.0000 C   0  0  0  0  0  0  0  0  0  0  0  0
    6.1552    0.2160    0.0000 C   0  0  0  0  0  0  0  0  0  0  0  0
    3.2401   -0.4929    0.0000 C   0  0  0  0  0  0  0  0  0  0  0  0
    1.7826   -0.8473    0.0000 C   0  0  0  0  0  0  0  0  0  0  0  0
   -2.5900   -1.9106    0.0000 C   0  0  0  0  0  0  0  0  0  0  0  0
   -3.0118   -3.3500    0.0000 O   0  0  0  0  0  0  0  0  0  0  0  0
   -3.6257   -0.8255    0.0000 C   0  0  0  0  0  0  0  0  0  0  0  0
   -5.0832   -1.1800    0.0000 N   0  0  0  0  0  0  0  0  0  0  0  0
   -6.1189   -0.0949    0.0000 C   0  0  0  0  0  0  0  0  0  0  0  0
   -5.6971    1.3445    0.0000 S   0  0  0  0  0  0  0  0  0  0  0  0
   -4.2396    1.6990    0.0000 C   0  0  0  0  0  0  0  0  0  0  0  0
   -3.8178    3.1384    0.0000 C   0  0  0  0  0  0  0  0  0  0  0  0
   -2.3602    3.4929    0.0000 C   0  0  0  0  0  0  0  0  0  0  0  0
   -1.9384    4.9323    0.0000 C   0  0  0  0  0  0  0  0  0  0  0  0
   -2.9741    6.0174    0.0000 C   0  0  0  0  0  0  0  0  0  0  0  0
   -2.5523    7.4568    0.0000 F   0  0  0  0  0  0  0  0  0  0  0  0
   -4.4317    5.6629    0.0000 C   0  0  0  0  0  0  0  0  0  0  0  0
   -4.8535    4.2235    0.0000 C   0  0  0  0  0  0  0  0  0  0  0  0
   -7.5764   -0.4494    0.0000 N   0  0  0  0  0  0  0  0  0  0  0  0
   -7.9983   -1.8888    0.0000 C   0  0  0  0  0  0  0  0  0  0  0  0
   -9.4558   -2.2433    0.0000 O   0  0  0  0  0  0  0  0  0  0  0  0
   -6.9626   -2.9739    0.0000 C   0  0  0  0  0  0  0  0  0  0  0  0
   -5.5050   -2.6194    0.0000 C   0  0  0  0  0  0  0  0  0  0  0  0
   -4.7175   -3.8961    0.0000 C   0  0  0  0  0  0  0  0  0  0  0  0
   -5.6884   -5.0396    0.0000 C   0  0  0  0  0  0  0  0  0  0  0  0
   -7.0759   -4.4696    0.0000 C   0  0  0  0  0  0  0  0  0  0  0  0
  1  2  1  0
  2  3  1  0
  3  4  1  0
  4  5  1  0
  3  6  1  0
  6  7  1  0
  7  8  1  0
  8  9  1  0
  9 10  1  0
 10 11  2  0
 11 12  1  0
 12 13  2  0
 13 14  1  0
 14 15  2  0
 15 16  1  0
 16 17  2  0
 17 18  1  0
 18 19  1  0
 18 20  1  0
 18 21  1  0
 17 22  1  0
 22 23  2  0
 13 24  1  0
 24 25  2  0
  8 26  1  0
 26 27  2  0
 26 28  1  0
 28 29  1  0
 29 30  1  0
 30 31  1  0
 31 32  1  0
 32 33  1  0
 33 34  2  0
 34 35  1  0
 35 36  2  0
 36 37  1  0
 36 38  1  0
 38 39  2  0
 30 40  2  0
 40 41  1  0
 41 42  2  0
 41 43  1  0
 43 44  2  0
 44 45  1  0
 45 46  1  0
 46 47  1  0
 25 10  1  0
 44 29  1  0
 23 14  1  0
 39 33  1  0
 47 43  1  0
M  END
> <Identifier>
N-[2-(Diethylamino)ethyl]-2-[[(4-fluorophenyl)-methyl]thio]-4,5,6,7-tetrahydro-4-oxo-n-[[4'-(trifluoromethyl)-[1,1'-biphenyl]-4-yl]methyl]-1h-cyclopentapyrim-idine-1-acetamide

> <SkinReaction>
1

$$$$

     RDKit          2D

  8  7  0  0  0  0  0  0  0  0999 V2000
   -2.9228    0.0000    0.0000 C   0  0  0  0  0  0  0  0  0  0  0  0
   -1.6238    0.7500    0.0000 C   0  0  0  0  0  0  0  0  0  0  0  0
   -0.3248   -0.0000    0.0000 N   0  0  0  0  0  0  0  0  0  0  0  0
   -0.3248   -1.5000    0.0000 N   0  0  0  0  0  0  0  0  0  0  0  0
    0.9743   -2.2500    0.0000 O   0  0  0  0  0  0  0  0  0  0  0  0
    0.9743    0.7500    0.0000 C   0  0  0  0  0  0  0  0  0  0  0  0
    2.2733   -0.0000    0.0000 N   0  0  0  0  0  0  0  0  0  0  0  0
    0.9743    2.2500    0.0000 O   0  0  0  0  0  0  0  0  0  0  0  0
  1  2  1  0
  2  3  1  0
  3  4  1  0
  4  5  2  0
  3  6  1  0
  6  7  1  0
  6  8  2  0
M  END
> <Identifier>
N-Ethyl-N-nitrosourea

> <SkinReaction>
1

$$$$

     RDKit          2D

 27 29  0  0  0  0  0  0  0  0999 V2000
   -5.5073    0.1756    0.0000 C   0  0  0  0  0  0  0  0  0  0  0  0
   -4.5686   -0.9944    0.0000 C   0  0  0  0  0  0  0  0  0  0  0  0
   -5.1125   -2.3924    0.0000 C   0  0  0  0  0  0  0  0  0  0  0  0
   -3.0860   -0.7665    0.0000 N   0  0  0  0  0  0  0  0  0  0  0  0
   -2.1473   -1.9365    0.0000 C   0  0  0  0  0  0  0  0  0  0  0  0
   -2.6912   -3.3344    0.0000 O   0  0  0  0  0  0  0  0  0  0  0  0
   -0.6648   -1.7086    0.0000 C   0  0  0  0  0  0  0  0  0  0  0  0
    0.2739   -2.8786    0.0000 N   0  0  0  0  0  0  0  0  0  0  0  0
    1.7565   -2.6506    0.0000 C   0  0  0  0  0  0  0  0  0  0  0  0
    2.6952   -3.8206    0.0000 C   0  0  0  0  0  0  0  0  0  0  0  0
    4.1778   -3.5927    0.0000 C   0  0  0  0  0  0  0  0  0  0  0  0
    4.7217   -2.1948    0.0000 C   0  0  0  0  0  0  0  0  0  0  0  0
    3.7830   -1.0248    0.0000 C   0  0  0  0  0  0  0  0  0  0  0  0
    2.3004   -1.2527    0.0000 C   0  0  0  0  0  0  0  0  0  0  0  0
    1.3617   -0.0827    0.0000 N   0  0  0  0  0  0  0  0  0  0  0  0
    1.9056    1.3152    0.0000 C   0  0  0  0  0  0  0  0  0  0  0  0
    3.3882    1.5431    0.0000 C   0  0  0  0  0  0  0  0  0  0  0  0
    3.9321    2.9410    0.0000 C   0  0  0  0  0  0  0  0  0  0  0  0
    2.9934    4.1110    0.0000 C   0  0  0  0  0  0  0  0  0  0  0  0
    1.5108    3.8831    0.0000 C   0  0  0  0  0  0  0  0  0  0  0  0
    0.9669    2.4852    0.0000 C   0  0  0  0  0  0  0  0  0  0  0  0
   -2.5421    0.6314    0.0000 C   0  0  0  0  0  0  0  0  0  0  0  0
   -1.0595    0.8593    0.0000 C   0  0  0  0  0  0  0  0  0  0  0  0
   -0.5157    2.2573    0.0000 C   0  0  0  0  0  0  0  0  0  0  0  0
   -1.4543    3.4272    0.0000 C   0  0  0  0  0  0  0  0  0  0  0  0
   -2.9369    3.1993    0.0000 C   0  0  0  0  0  0  0  0  0  0  0  0
   -3.4808    1.8014    0.0000 C   0  0  0  0  0  0  0  0  0  0  0  0
  1  2  1  0
  2  3  1  0
  2  4  1  0
  4  5  1  0
  5  6  2  0
  5  7  1  0
  7  8  1  0
  8  9  1  0
  9 10  2  0
 10 11  1  0
 11 12  2  0
 12 13  1  0
 13 14  2  0
 14 15  1  0
 15 16  1  0
 16 17  2  0
 17 18  1  0
 18 19  2  0
 19 20  1  0
 20 21  2  0
  4 22  1  0
 22 23  2  0
 23 24  1  0
 24 25  2  0
 25 26  1  0
 26 27  2  0
 14  9  1  0
 21 16  1  0
 27 22  1  0
M  END
> <Identifier>
N-Isopropyl-n-phenyl-2-(2-phenylamino-phenylamino)-acetamide

> <SkinReaction>
1

$$$$

     RDKit          2D

  7  6  0  0  0  0  0  0  0  0999 V2000
   -0.7500    2.0413    0.0000 C   0  0  0  0  0  0  0  0  0  0  0  0
    0.0000    0.7423    0.0000 N   0  0  0  0  0  0  0  0  0  0  0  0
    1.5000    0.7423    0.0000 N   0  0  0  0  0  0  0  0  0  0  0  0
    2.2500   -0.5567    0.0000 O   0  0  0  0  0  0  0  0  0  0  0  0
   -0.7500   -0.5567    0.0000 C   0  0  0  0  0  0  0  0  0  0  0  0
   -0.0000   -1.8558    0.0000 N   0  0  0  0  0  0  0  0  0  0  0  0
   -2.2500   -0.5567    0.0000 O   0  0  0  0  0  0  0  0  0  0  0  0
  1  2  1  0
  2  3  1  0
  3  4  2  0
  2  5  1  0
  5  6  1  0
  5  7  2  0
M  END
> <Identifier>
N-Methyl-N-nitrosourea

> <SkinReaction>
1

$$$$

     RDKit          2D

 23 22  0  0  0  0  0  0  0  0999 V2000
  -14.0125   -0.2350    0.0000 C   0  0  0  0  0  0  0  0  0  0  0  0
  -12.7018    0.4944    0.0000 C   0  0  0  0  0  0  0  0  0  0  0  0
  -11.4147   -0.2761    0.0000 C   0  0  0  0  0  0  0  0  0  0  0  0
  -10.1040    0.4533    0.0000 C   0  0  0  0  0  0  0  0  0  0  0  0
   -8.8170   -0.3171    0.0000 C   0  0  0  0  0  0  0  0  0  0  0  0
   -7.5062    0.4122    0.0000 C   0  0  0  0  0  0  0  0  0  0  0  0
   -6.2192   -0.3582    0.0000 C   0  0  0  0  0  0  0  0  0  0  0  0
   -4.9085    0.3711    0.0000 C   0  0  0  0  0  0  0  0  0  0  0  0
   -3.6215   -0.3993    0.0000 C   0  0  0  0  0  0  0  0  0  0  0  0
   -2.3107    0.3301    0.0000 C   0  0  0  0  0  0  0  0  0  0  0  0
   -1.0237   -0.4404    0.0000 C   0  0  0  0  0  0  0  0  0  0  0  0
    0.2870    0.2890    0.0000 C   0  0  0  0  0  0  0  0  0  0  0  0
    1.5740   -0.4815    0.0000 C   0  0  0  0  0  0  0  0  0  0  0  0
    2.8848    0.2479    0.0000 C   0  0  0  0  0  0  0  0  0  0  0  0
    4.1718   -0.5226    0.0000 C   0  0  0  0  0  0  0  0  0  0  0  0
    5.4825    0.2068    0.0000 C   0  0  0  0  0  0  0  0  0  0  0  0
    6.7695   -0.5636    0.0000 C   0  0  0  0  0  0  0  0  0  0  0  0
    8.0803    0.1657    0.0000 C   0  0  0  0  0  0  0  0  0  0  0  0
    9.3673   -0.6047    0.0000 O   0  0  0  0  0  0  0  0  0  0  0  0
   10.6780    0.1247    0.0000 S   0  0  0  0  0  0  0  0  0  0  0  0
   11.9887    0.8540    0.0000 C   0  0  0  0  0  0  0  0  0  0  0  0
    9.9486    1.4354    0.0000 O   0  0  0  0  0  0  0  0  0  0  0  0
   11.4074   -1.1861    0.0000 O   0  0  0  0  0  0  0  0  0  0  0  0
  1  2  1  0
  2  3  1  0
  3  4  1  0
  4  5  1  0
  5  6  1  0
  6  7  1  0
  7  8  1  0
  8  9  1  0
  9 10  2  3
 10 11  1  0
 11 12  1  0
 12 13  1  0
 13 14  1  0
 14 15  1  0
 15 16  1  0
 16 17  1  0
 17 18  1  0
 18 19  1  0
 19 20  1  0
 20 21  1  0
 20 22  2  0
 20 23  2  0
M  END
> <Identifier>
Oleyl methanesulfonate

> <SkinReaction>
1

$$$$

     RDKit          2D

 22 26  0  0  0  0  0  0  0  0999 V2000
   -4.8942   -2.5671    0.0000 C   0  0  0  0  0  0  0  0  0  0  0  0
   -3.3951   -2.6191    0.0000 O   0  0  0  0  0  0  0  0  0  0  0  0
   -2.6006   -1.3468    0.0000 C   0  0  0  0  0  0  0  0  0  0  0  0
   -3.3051   -0.0226    0.0000 C   0  0  0  0  0  0  0  0  0  0  0  0
   -2.5106    1.2497    0.0000 C   0  0  0  0  0  0  0  0  0  0  0  0
   -1.0115    1.1977    0.0000 C   0  0  0  0  0  0  0  0  0  0  0  0
   -0.2169    2.4700    0.0000 C   0  0  0  0  0  0  0  0  0  0  0  0
    1.2822    2.4180    0.0000 C   0  0  0  0  0  0  0  0  0  0  0  0
    1.9867    1.0938    0.0000 C   0  0  0  0  0  0  0  0  0  0  0  0
    3.4858    1.0418    0.0000 C   0  0  0  0  0  0  0  0  0  0  0  0
    4.1904   -0.2824    0.0000 C   0  0  0  0  0  0  0  0  0  0  0  0
    3.3958   -1.5547    0.0000 C   0  0  0  0  0  0  0  0  0  0  0  0
    4.1004   -2.8789    0.0000 O   0  0  0  0  0  0  0  0  0  0  0  0
    1.8967   -1.5027    0.0000 C   0  0  0  0  0  0  0  0  0  0  0  0
    1.1922   -0.1785    0.0000 C   0  0  0  0  0  0  0  0  0  0  0  0
   -0.3069   -0.1265    0.0000 C   0  0  0  0  0  0  0  0  0  0  0  0
    0.2595    0.5038    0.0000 C   0  0  0  0  0  0  0  0  0  0  0  0
   -0.4118    1.1769    0.0000 C   0  0  0  0  0  0  0  0  0  0  0  0
    0.3045    1.8020    0.0000 N   0  0  0  0  0  0  0  0  0  0  0  0
   -2.4206    3.8462    0.0000 C   0  0  0  0  0  0  0  0  0  0  0  0
   -1.1015   -1.3988    0.0000 C   0  0  0  0  0  0  0  0  0  0  0  0
    0.0808   -2.3220    0.0000 O   0  0  0  0  0  0  0  0  0  0  0  0
  1  2  1  0
  2  3  1  0
  3  4  2  0
  4  5  1  0
  5  6  2  0
  6  7  1  0
  7  8  1  0
  8  9  1  0
  9 10  2  0
 10 11  1  0
 11 12  2  0
 12 13  1  0
 12 14  1  0
 14 15  2  0
 15 16  1  0
 16 17  1  0
 17 18  1  0
 18 19  1  0
 19 20  1  0
 16 21  1  0
 21 22  1  0
 21  3  1  0
 16  6  1  0
 19  7  1  0
 15  9  1  0
 22 14  1  0
M  END
> <Identifier>
Oripavine

> <SkinReaction>
1

$$$$

     RDKit          2D

  6  5  0  0  0  0  0  0  0  0999 V2000
   -1.5000   -1.2990    0.0000 O   0  0  0  0  0  0  0  0  0  0  0  0
   -0.7500   -0.0000    0.0000 C   0  0  0  0  0  0  0  0  0  0  0  0
   -1.5000    1.2990    0.0000 O   0  0  0  0  0  0  0  0  0  0  0  0
    0.7500   -0.0000    0.0000 C   0  0  0  0  0  0  0  0  0  0  0  0
    1.5000    1.2990    0.0000 O   0  0  0  0  0  0  0  0  0  0  0  0
    1.5000   -1.2990    0.0000 O   0  0  0  0  0  0  0  0  0  0  0  0
  1  2  2  0
  2  3  1  0
  2  4  1  0
  4  5  2  0
  4  6  1  0
M  END
> <Identifier>
Oxalic acid

> <SkinReaction>
1

$$$$

     RDKit          2D

  6  6  0  0  0  0  0  0  0  0999 V2000
    2.3133   -0.0000    0.0000 O   0  0  0  0  0  0  0  0  0  0  0  0
    0.8133   -0.0000    0.0000 C   0  0  0  0  0  0  0  0  0  0  0  0
   -0.0684    1.2135    0.0000 N   0  0  0  0  0  0  0  0  0  0  0  0
   -1.4949    0.7500    0.0000 C   0  0  0  0  0  0  0  0  0  0  0  0
   -1.4949   -0.7500    0.0000 C   0  0  0  0  0  0  0  0  0  0  0  0
   -0.0684   -1.2135    0.0000 O   0  0  0  0  0  0  0  0  0  0  0  0
  1  2  2  0
  2  3  1  0
  3  4  1  0
  4  5  2  0
  5  6  1  0
  6  2  1  0
M  END
> <Identifier>
2,3-Dihydro-1,3-oxazol-2-one

> <SkinReaction>
1

$$$$

     RDKit          2D

 23 25  0  0  0  0  0  0  0  0999 V2000
   -2.5761   -3.0750    0.0000 C   0  0  0  0  0  0  0  0  0  0  0  0
   -2.9872   -1.6324    0.0000 C   0  0  0  0  0  0  0  0  0  0  0  0
   -4.3789   -2.1920    0.0000 C   0  0  0  0  0  0  0  0  0  0  0  0
   -1.5096   -1.3744    0.0000 S   0  0  0  0  0  0  0  0  0  0  0  0
   -1.2984    0.1107    0.0000 C   0  0  0  0  0  0  0  0  0  0  0  0
   -0.6386    1.4578    0.0000 C   0  0  0  0  0  0  0  0  0  0  0  0
    0.7805    1.9438    0.0000 N   0  0  0  0  0  0  0  0  0  0  0  0
    1.9109    0.9579    0.0000 C   0  0  0  0  0  0  0  0  0  0  0  0
    1.6223   -0.5141    0.0000 O   0  0  0  0  0  0  0  0  0  0  0  0
    3.3300    1.4439    0.0000 C   0  0  0  0  0  0  0  0  0  0  0  0
    4.4604    0.4579    0.0000 C   0  0  0  0  0  0  0  0  0  0  0  0
    4.1718   -1.0140    0.0000 C   0  0  0  0  0  0  0  0  0  0  0  0
    5.3022   -2.0000    0.0000 C   0  0  0  0  0  0  0  0  0  0  0  0
    6.7213   -1.5140    0.0000 C   0  0  0  0  0  0  0  0  0  0  0  0
    7.0100   -0.0420    0.0000 C   0  0  0  0  0  0  0  0  0  0  0  0
    5.8795    0.9439    0.0000 C   0  0  0  0  0  0  0  0  0  0  0  0
   -1.9857    2.1176    0.0000 C   0  0  0  0  0  0  0  0  0  0  0  0
   -2.4717    3.5366    0.0000 O   0  0  0  0  0  0  0  0  0  0  0  0
   -2.6455    0.7705    0.0000 N   0  0  0  0  0  0  0  0  0  0  0  0
   -3.6892   -0.3068    0.0000 C   0  0  0  0  0  0  0  0  0  0  0  0
   -5.1743   -0.0956    0.0000 C   0  0  0  0  0  0  0  0  0  0  0  0
   -6.0997   -1.2761    0.0000 O   0  0  0  0  0  0  0  0  0  0  0  0
   -5.7339    1.2961    0.0000 O   0  0  0  0  0  0  0  0  0  0  0  0
  1  2  1  0
  2  3  1  0
  2  4  1  0
  4  5  1  0
  5  6  1  0
  6  7  1  0
  7  8  1  0
  8  9  2  0
  8 10  1  0
 10 11  1  0
 11 12  2  0
 12 13  1  0
 13 14  2  0
 14 15  1  0
 15 16  2  0
  6 17  1  0
 17 18  2  0
 17 19  1  0
 19 20  1  0
 20 21  1  0
 21 22  2  0
 21 23  1  0
 20  2  1  0
 19  5  1  0
 16 11  1  0
M  END
> <Identifier>
Penicillin G

> <SkinReaction>
1

$$$$

     RDKit          2D

 12 12  0  0  0  0  0  0  0  0999 V2000
    3.0000    0.0000    0.0000 O   0  0  0  0  0  0  0  0  0  0  0  0
    1.5000    0.0000    0.0000 C   0  0  0  0  0  0  0  0  0  0  0  0
    0.7500   -1.2990    0.0000 C   0  0  0  0  0  0  0  0  0  0  0  0
    1.5000   -2.5981    0.0000 Cl  0  0  0  0  0  0  0  0  0  0  0  0
   -0.7500   -1.2990    0.0000 C   0  0  0  0  0  0  0  0  0  0  0  0
   -1.5000   -2.5981    0.0000 Cl  0  0  0  0  0  0  0  0  0  0  0  0
   -1.5000    0.0000    0.0000 C   0  0  0  0  0  0  0  0  0  0  0  0
   -3.0000    0.0000    0.0000 Cl  0  0  0  0  0  0  0  0  0  0  0  0
   -0.7500    1.2990    0.0000 C   0  0  0  0  0  0  0  0  0  0  0  0
   -1.5000    2.5981    0.0000 Cl  0  0  0  0  0  0  0  0  0  0  0  0
    0.7500    1.2990    0.0000 C   0  0  0  0  0  0  0  0  0  0  0  0
    1.5000    2.5981    0.0000 Cl  0  0  0  0  0  0  0  0  0  0  0  0
  1  2  1  0
  2  3  2  0
  3  4  1  0
  3  5  1  0
  5  6  1  0
  5  7  2  0
  7  8  1  0
  7  9  1  0
  9 10  1  0
  9 11  2  0
 11 12  1  0
 11  2  1  0
M  END
> <Identifier>
Pentachlorophenol

> <SkinReaction>
1

$$$$

     RDKit          2D

 11 11  0  0  0  0  0  0  0  0999 V2000
   -3.2784   -1.5061    0.0000 C   0  0  0  0  0  0  0  0  0  0  0  0
   -2.6580   -0.1404    0.0000 C   0  0  0  0  0  0  0  0  0  0  0  0
   -3.5305    1.0797    0.0000 C   0  0  0  0  0  0  0  0  0  0  0  0
   -1.1651    0.0051    0.0000 C   0  0  0  0  0  0  0  0  0  0  0  0
   -0.5446    1.3708    0.0000 C   0  0  0  0  0  0  0  0  0  0  0  0
    0.9483    1.5163    0.0000 C   0  0  0  0  0  0  0  0  0  0  0  0
    1.8208    0.2961    0.0000 C   0  0  0  0  0  0  0  0  0  0  0  0
    3.3137    0.4417    0.0000 C   0  0  0  0  0  0  0  0  0  0  0  0
    4.1862   -0.7785    0.0000 O   0  0  0  0  0  0  0  0  0  0  0  0
    1.2003   -1.0695    0.0000 C   0  0  0  0  0  0  0  0  0  0  0  0
   -0.2926   -1.2151    0.0000 C   0  0  0  0  0  0  0  0  0  0  0  0
  1  2  2  0
  2  3  1  0
  2  4  1  0
  4  5  1  0
  5  6  1  0
  6  7  2  0
  7  8  1  0
  8  9  2  0
  7 10  1  0
 10 11  1  0
 11  4  1  0
M  END
> <Identifier>
Perillaldehyde

> <SkinReaction>
1

$$$$

     RDKit          2D

  9  9  0  0  0  0  0  0  0  0999 V2000
   -4.0444    0.0606    0.0000 O   0  0  0  0  0  0  0  0  0  0  0  0
   -2.5865    0.4135    0.0000 C   0  0  0  0  0  0  0  0  0  0  0  0
   -1.5520   -0.6727    0.0000 C   0  0  0  0  0  0  0  0  0  0  0  0
   -0.0941   -0.3198    0.0000 C   0  0  0  0  0  0  0  0  0  0  0  0
    0.3293    1.1192    0.0000 C   0  0  0  0  0  0  0  0  0  0  0  0
    1.7872    1.4721    0.0000 C   0  0  0  0  0  0  0  0  0  0  0  0
    2.8217    0.3860    0.0000 C   0  0  0  0  0  0  0  0  0  0  0  0
    2.3984   -1.0531    0.0000 C   0  0  0  0  0  0  0  0  0  0  0  0
    0.9405   -1.4059    0.0000 C   0  0  0  0  0  0  0  0  0  0  0  0
  1  2  2  0
  2  3  1  0
  3  4  1  0
  4  5  2  0
  5  6  1  0
  6  7  2  0
  7  8  1  0
  8  9  2  0
  9  4  1  0
M  END
> <Identifier>
Phenylacetaldehyde

> <SkinReaction>
1

$$$$

     RDKit          2D

 11 11  0  0  0  0  0  0  0  0999 V2000
   -4.3318   -0.7069    0.0000 C   0  0  0  0  0  0  0  0  0  0  0  0
   -2.8860   -0.3074    0.0000 C   0  0  0  0  0  0  0  0  0  0  0  0
   -2.5091    1.1445    0.0000 C   0  0  0  0  0  0  0  0  0  0  0  0
   -1.0633    1.5440    0.0000 C   0  0  0  0  0  0  0  0  0  0  0  0
    0.0056    0.4916    0.0000 C   0  0  0  0  0  0  0  0  0  0  0  0
    1.4514    0.8912    0.0000 C   0  0  0  0  0  0  0  0  0  0  0  0
    2.5203   -0.1612    0.0000 C   0  0  0  0  0  0  0  0  0  0  0  0
    3.9662    0.2383    0.0000 C   0  0  0  0  0  0  0  0  0  0  0  0
    5.0351   -0.8140    0.0000 O   0  0  0  0  0  0  0  0  0  0  0  0
   -0.3713   -0.9602    0.0000 C   0  0  0  0  0  0  0  0  0  0  0  0
   -1.8171   -1.3598    0.0000 C   0  0  0  0  0  0  0  0  0  0  0  0
  1  2  1  0
  2  3  2  0
  3  4  1  0
  4  5  2  0
  5  6  1  0
  6  7  1  0
  7  8  1  0
  8  9  2  0
  5 10  1  0
 10 11  2  0
 11  2  1  0
M  END
> <Identifier>
p-Methylhydrocinnamic aldehyde

> <SkinReaction>
1

$$$$

     RDKit          2D

 15 15  0  0  0  0  0  0  0  0999 V2000
   -4.8943   -0.7323    0.0000 C   0  0  0  0  0  0  0  0  0  0  0  0
   -3.4565   -0.3048    0.0000 C   0  0  0  0  0  0  0  0  0  0  0  0
   -3.1077    1.1541    0.0000 C   0  0  0  0  0  0  0  0  0  0  0  0
   -4.1968    2.1855    0.0000 O   0  0  0  0  0  0  0  0  0  0  0  0
   -2.3674   -1.3363    0.0000 C   0  0  0  0  0  0  0  0  0  0  0  0
   -0.9296   -0.9088    0.0000 C   0  0  0  0  0  0  0  0  0  0  0  0
   -0.5809    0.5501    0.0000 C   0  0  0  0  0  0  0  0  0  0  0  0
    0.8570    0.9776    0.0000 C   0  0  0  0  0  0  0  0  0  0  0  0
    1.9460   -0.0539    0.0000 C   0  0  0  0  0  0  0  0  0  0  0  0
    3.3838    0.3736    0.0000 C   0  0  0  0  0  0  0  0  0  0  0  0
    3.8113   -1.0642    0.0000 C   0  0  0  0  0  0  0  0  0  0  0  0
    2.9564    1.8114    0.0000 C   0  0  0  0  0  0  0  0  0  0  0  0
    4.8217    0.8011    0.0000 C   0  0  0  0  0  0  0  0  0  0  0  0
    1.5973   -1.5128    0.0000 C   0  0  0  0  0  0  0  0  0  0  0  0
    0.1595   -1.9402    0.0000 C   0  0  0  0  0  0  0  0  0  0  0  0
  1  2  1  0
  2  3  1  0
  3  4  2  0
  2  5  1  0
  5  6  1  0
  6  7  2  0
  7  8  1  0
  8  9  2  0
  9 10  1  0
 10 11  1  0
 10 12  1  0
 10 13  1  0
  9 14  1  0
 14 15  2  0
 15  6  1  0
M  END
> <Identifier>
p-tert-Butyl-a-ethyl-hydrocinnamal

> <SkinReaction>
1

$$$$

     RDKit          2D

 15 16  0  0  0  0  0  0  0  0999 V2000
   -4.0018    1.2773    0.0000 C   0  0  0  0  0  0  0  0  0  0  0  0
   -3.7834   -0.2067    0.0000 C   0  0  0  0  0  0  0  0  0  0  0  0
   -3.5650   -1.6907    0.0000 C   0  0  0  0  0  0  0  0  0  0  0  0
   -5.2674   -0.4251    0.0000 C   0  0  0  0  0  0  0  0  0  0  0  0
   -2.2994    0.0117    0.0000 C   0  0  0  0  0  0  0  0  0  0  0  0
   -1.7466    1.4061    0.0000 C   0  0  0  0  0  0  0  0  0  0  0  0
   -0.2626    1.6245    0.0000 C   0  0  0  0  0  0  0  0  0  0  0  0
    0.6686    0.4485    0.0000 C   0  0  0  0  0  0  0  0  0  0  0  0
    2.1526    0.6670    0.0000 O   0  0  0  0  0  0  0  0  0  0  0  0
    3.0838   -0.5090    0.0000 C   0  0  0  0  0  0  0  0  0  0  0  0
    4.5678   -0.2906    0.0000 C   0  0  0  0  0  0  0  0  0  0  0  0
    5.7438    0.6405    0.0000 C   0  0  0  0  0  0  0  0  0  0  0  0
    5.9622   -0.8435    0.0000 O   0  0  0  0  0  0  0  0  0  0  0  0
    0.1158   -0.9459    0.0000 C   0  0  0  0  0  0  0  0  0  0  0  0
   -1.3683   -1.1643    0.0000 C   0  0  0  0  0  0  0  0  0  0  0  0
  1  2  1  0
  2  3  1  0
  2  4  1  0
  2  5  1  0
  5  6  2  0
  6  7  1  0
  7  8  2  0
  8  9  1  0
  9 10  1  0
 10 11  1  0
 11 12  1  0
 12 13  1  0
  8 14  1  0
 14 15  2  0
 15  5  1  0
 13 11  1  0
M  END
> <Identifier>
p-tert-Butylphenyl Glycidyl Ether

> <SkinReaction>
1

$$$$

     RDKit          2D

  6  6  0  0  0  0  0  0  0  0999 V2000
    1.5000    0.0000    0.0000 C   0  0  0  0  0  0  0  0  0  0  0  0
    0.7500   -1.2990    0.0000 C   0  0  0  0  0  0  0  0  0  0  0  0
   -0.7500   -1.2990    0.0000 C   0  0  0  0  0  0  0  0  0  0  0  0
   -1.5000    0.0000    0.0000 N   0  0  0  0  0  0  0  0  0  0  0  0
   -0.7500    1.2990    0.0000 C   0  0  0  0  0  0  0  0  0  0  0  0
    0.7500    1.2990    0.0000 C   0  0  0  0  0  0  0  0  0  0  0  0
  1  2  2  0
  2  3  1  0
  3  4  2  0
  4  5  1  0
  5  6  2  0
  6  1  1  0
M  END
> <Identifier>
Pyridine

> <SkinReaction>
1

$$$$

     RDKit          2D

 11 11  0  0  0  0  0  0  0  0999 V2000
   -3.0172   -1.5150    0.0000 C   0  0  0  0  0  0  0  0  0  0  0  0
   -2.4629   -0.1212    0.0000 C   0  0  0  0  0  0  0  0  0  0  0  0
   -3.3929    1.0557    0.0000 C   0  0  0  0  0  0  0  0  0  0  0  0
   -0.9787    0.0957    0.0000 C   0  0  0  0  0  0  0  0  0  0  0  0
   -0.4244    1.4895    0.0000 C   0  0  0  0  0  0  0  0  0  0  0  0
    1.0599    1.7064    0.0000 C   0  0  0  0  0  0  0  0  0  0  0  0
    1.9898    0.5295    0.0000 C   0  0  0  0  0  0  0  0  0  0  0  0
    3.4740    0.7463    0.0000 C   0  0  0  0  0  0  0  0  0  0  0  0
    1.4355   -0.8644    0.0000 C   0  0  0  0  0  0  0  0  0  0  0  0
    2.3655   -2.0413    0.0000 O   0  0  0  0  0  0  0  0  0  0  0  0
   -0.0487   -1.0813    0.0000 C   0  0  0  0  0  0  0  0  0  0  0  0
  1  2  2  0
  2  3  1  0
  2  4  1  0
  4  5  1  0
  5  6  1  0
  6  7  2  0
  7  8  1  0
  7  9  1  0
  9 10  2  0
  9 11  1  0
 11  4  1  0
M  END
> <Identifier>
R-Carvone

> <SkinReaction>
1

$$$$

     RDKit          2D

 21 23  0  0  0  0  0  0  0  0999 V2000
   -0.2225   -1.0053    0.0000 O   0  0  0  0  0  0  0  0  0  0  0  0
   -0.4932    0.4701    0.0000 C   0  0  0  0  0  0  0  0  0  0  0  0
    0.6492    1.4422    0.0000 O   0  0  0  0  0  0  0  0  0  0  0  0
    2.0622    0.9389    0.0000 C   0  0  0  0  0  0  0  0  0  0  0  0
    2.3329   -0.5365    0.0000 C   0  0  0  0  0  0  0  0  0  0  0  0
    3.7460   -1.0397    0.0000 C   0  0  0  0  0  0  0  0  0  0  0  0
    4.8884   -0.0676    0.0000 C   0  0  0  0  0  0  0  0  0  0  0  0
    6.3014   -0.5709    0.0000 N   0  0  0  0  0  4  0  0  0  0  0  0
    7.4438    0.4012    0.0000 O   0  0  0  0  0  0  0  0  0  0  0  0
    6.5721   -2.0463    0.0000 O   0  0  0  0  0  1  0  0  0  0  0  0
    4.6177    1.4077    0.0000 C   0  0  0  0  0  0  0  0  0  0  0  0
    3.2046    1.9110    0.0000 C   0  0  0  0  0  0  0  0  0  0  0  0
   -1.9062    0.9733    0.0000 O   0  0  0  0  0  0  0  0  0  0  0  0
   -3.0486    0.0012    0.0000 C   0  0  0  0  0  0  0  0  0  0  0  0
   -2.9336   -1.4944    0.0000 C   0  0  0  0  0  0  0  0  0  0  0  0
   -4.3205   -2.0659    0.0000 O   0  0  0  0  0  0  0  0  0  0  0  0
   -5.2926   -0.9235    0.0000 C   0  0  0  0  0  0  0  0  0  0  0  0
   -6.7505   -0.5707    0.0000 O   0  0  0  0  0  0  0  0  0  0  0  0
   -6.8655    0.9249    0.0000 C   0  0  0  0  0  0  0  0  0  0  0  0
   -5.4786    1.4964    0.0000 C   0  0  0  0  0  0  0  0  0  0  0  0
   -4.5065    0.3540    0.0000 C   0  0  0  0  0  0  0  0  0  0  0  0
  1  2  2  0
  2  3  1  0
  3  4  1  0
  4  5  2  0
  5  6  1  0
  6  7  2  0
  7  8  1  0
  8  9  2  0
  8 10  1  0
  7 11  1  0
 11 12  2  0
  2 13  1  0
 13 14  1  0
 14 15  1  0
 15 16  1  0
 16 17  1  0
 17 18  1  0
 18 19  1  0
 19 20  1  0
 20 21  1  0
 12  4  1  0
 21 14  1  0
 21 17  1  0
M  CHG  2   8   1  10  -1
M  END
> <Identifier>
(3R,3aS,6aR)-Hexahydrofuro[2,3-b]furan-3-yl 4-nitrophenyl carbonate

> <SkinReaction>
1

$$$$

     RDKit          2D

  6  5  0  0  0  0  0  0  0  0999 V2000
   -2.8748   -0.2197    0.0000 C   0  0  0  0  0  0  0  0  0  0  0  0
   -1.4825    0.3386    0.0000 C   0  0  0  0  0  0  0  0  0  0  0  0
   -0.3029   -0.5880    0.0000 O   0  0  0  0  0  0  0  0  0  0  0  0
    1.0893   -0.0297    0.0000 C   0  0  0  0  0  0  0  0  0  0  0  0
    1.3020    1.4551    0.0000 S   0  0  0  0  0  0  0  0  0  0  0  0
    2.2689   -0.9563    0.0000 S   0  0  0  0  0  0  0  0  0  0  0  0
  1  2  1  0
  2  3  1  0
  3  4  1  0
  4  5  2  0
  4  6  1  0
M  END
> <Identifier>
Sodium ethyl xanthate

> <SkinReaction>
1

$$$$

     RDKit          2D

 24 23  0  0  0  0  0  0  0  0999 V2000
  -12.1099    0.8946    0.0000 C   0  0  0  0  0  0  0  0  0  0  0  0
  -10.6792    1.3453    0.0000 C   0  0  0  0  0  0  0  0  0  0  0  0
   -9.5735    0.3317    0.0000 C   0  0  0  0  0  0  0  0  0  0  0  0
   -8.1428    0.7825    0.0000 C   0  0  0  0  0  0  0  0  0  0  0  0
   -7.0371   -0.2311    0.0000 C   0  0  0  0  0  0  0  0  0  0  0  0
   -5.6064    0.2197    0.0000 C   0  0  0  0  0  0  0  0  0  0  0  0
   -4.5007   -0.7939    0.0000 C   0  0  0  0  0  0  0  0  0  0  0  0
   -3.0701   -0.3431    0.0000 C   0  0  0  0  0  0  0  0  0  0  0  0
   -1.9643   -1.3567    0.0000 C   0  0  0  0  0  0  0  0  0  0  0  0
   -0.5337   -0.9059    0.0000 C   0  0  0  0  0  0  0  0  0  0  0  0
    0.5720   -1.9195    0.0000 C   0  0  0  0  0  0  0  0  0  0  0  0
    2.0027   -1.4687    0.0000 C   0  0  0  0  0  0  0  0  0  0  0  0
    2.3276   -0.0043    0.0000 O   0  0  0  0  0  0  0  0  0  0  0  0
    3.1084   -2.4823    0.0000 O   0  0  0  0  0  0  0  0  0  0  0  0
    4.5391   -2.0315    0.0000 C   0  0  0  0  0  0  0  0  0  0  0  0
    5.6448   -3.0451    0.0000 C   0  0  0  0  0  0  0  0  0  0  0  0
    4.8640   -0.5671    0.0000 C   0  0  0  0  0  0  0  0  0  0  0  0
    3.7583    0.4465    0.0000 O   0  0  0  0  0  0  0  0  0  0  0  0
    6.2947   -0.1164    0.0000 O   0  0  0  0  0  0  0  0  0  0  0  0
    6.6196    1.3480    0.0000 C   0  0  0  0  0  0  0  0  0  0  0  0
    8.0503    1.7988    0.0000 C   0  0  0  0  0  0  0  0  0  0  0  0
    5.5139    2.3616    0.0000 C   0  0  0  0  0  0  0  0  0  0  0  0
    4.0832    1.9108    0.0000 O   0  0  0  0  0  0  0  0  0  0  0  0
    5.8388    3.8260    0.0000 O   0  0  0  0  0  0  0  0  0  0  0  0
  1  2  1  0
  2  3  1  0
  3  4  1  0
  4  5  1  0
  5  6  1  0
  6  7  1  0
  7  8  1  0
  8  9  1  0
  9 10  1  0
 10 11  1  0
 11 12  1  0
 12 13  2  0
 12 14  1  0
 14 15  1  0
 15 16  1  0
 15 17  1  0
 17 18  2  0
 17 19  1  0
 19 20  1  0
 20 21  1  0
 20 22  1  0
 22 23  2  0
 22 24  1  0
M  END
> <Identifier>
Sodium lauroyl lactylate

> <SkinReaction>
1

$$$$

     RDKit          2D

 21 21  0  0  0  0  0  0  0  0999 V2000
   -5.1452   -1.7250    0.0000 C   0  0  0  0  0  0  0  0  0  0  0  0
   -3.8173   -1.0274    0.0000 C   0  0  0  0  0  0  0  0  0  0  0  0
   -2.5492   -1.8285    0.0000 C   0  0  0  0  0  0  0  0  0  0  0  0
   -1.2213   -1.1308    0.0000 C   0  0  0  0  0  0  0  0  0  0  0  0
   -1.1616    0.3680    0.0000 O   0  0  0  0  0  0  0  0  0  0  0  0
    0.0468   -1.9320    0.0000 O   0  0  0  0  0  0  0  0  0  0  0  0
    1.3747   -1.2343    0.0000 C   0  0  0  0  0  0  0  0  0  0  0  0
    1.4344    0.2645    0.0000 C   0  0  0  0  0  0  0  0  0  0  0  0
    2.7623    0.9622    0.0000 C   0  0  0  0  0  0  0  0  0  0  0  0
    4.0304    0.1611    0.0000 C   0  0  0  0  0  0  0  0  0  0  0  0
    5.3583    0.8587    0.0000 S   0  0  0  0  0  0  0  0  0  0  0  0
    6.0560   -0.4691    0.0000 O   0  0  0  0  0  0  0  0  0  0  0  0
    4.6606    2.1866    0.0000 O   0  0  0  0  0  0  0  0  0  0  0  0
    6.6862    1.5564    0.0000 O   0  0  0  0  0  0  0  0  0  0  0  0
    3.9707   -1.3378    0.0000 C   0  0  0  0  0  0  0  0  0  0  0  0
    2.6428   -2.0354    0.0000 C   0  0  0  0  0  0  0  0  0  0  0  0
   -3.7576    0.4714    0.0000 C   0  0  0  0  0  0  0  0  0  0  0  0
   -5.0257    1.2726    0.0000 C   0  0  0  0  0  0  0  0  0  0  0  0
   -4.2246    2.5407    0.0000 C   0  0  0  0  0  0  0  0  0  0  0  0
   -5.8269    0.0044    0.0000 C   0  0  0  0  0  0  0  0  0  0  0  0
   -6.2939    2.0737    0.0000 C   0  0  0  0  0  0  0  0  0  0  0  0
  1  2  1  0
  2  3  1  0
  3  4  1  0
  4  5  2  0
  4  6  1  0
  6  7  1  0
  7  8  2  0
  8  9  1  0
  9 10  2  0
 10 11  1  0
 11 12  2  0
 11 13  2  0
 11 14  1  0
 10 15  1  0
 15 16  2  0
  2 17  1  0
 17 18  1  0
 18 19  1  0
 18 20  1  0
 18 21  1  0
 16  7  1  0
M  END
> <Identifier>
Sodium-3,3,5-trimethyl-benzenesulfonate

> <SkinReaction>
1

$$$$

     RDKit          2D

 30 29  0  0  0  0  0  0  0  0999 V2000
  -12.2218    2.6503    0.0000 C   0  0  0  0  0  0  0  0  0  0  0  0
  -10.9626    1.8352    0.0000 C   0  0  0  0  0  0  0  0  0  0  0  0
  -11.0390    0.3372    0.0000 C   0  0  0  0  0  0  0  0  0  0  0  0
   -9.6271    2.5181    0.0000 C   0  0  0  0  0  0  0  0  0  0  0  0
   -8.3679    1.7030    0.0000 C   0  0  0  0  0  0  0  0  0  0  0  0
   -7.0324    2.3859    0.0000 C   0  0  0  0  0  0  0  0  0  0  0  0
   -5.7732    1.5708    0.0000 C   0  0  0  0  0  0  0  0  0  0  0  0
   -4.4377    2.2537    0.0000 C   0  0  0  0  0  0  0  0  0  0  0  0
   -5.8495    0.0727    0.0000 C   0  0  0  0  0  0  0  0  0  0  0  0
   -4.5904   -0.7424    0.0000 C   0  0  0  0  0  0  0  0  0  0  0  0
   -4.6667   -2.2404    0.0000 C   0  0  0  0  0  0  0  0  0  0  0  0
   -3.4075   -3.0556    0.0000 C   0  0  0  0  0  0  0  0  0  0  0  0
   -3.4838   -4.5536    0.0000 C   0  0  0  0  0  0  0  0  0  0  0  0
   -2.0720   -2.3726    0.0000 C   0  0  0  0  0  0  0  0  0  0  0  0
   -0.8128   -3.1878    0.0000 C   0  0  0  0  0  0  0  0  0  0  0  0
    0.5227   -2.5048    0.0000 C   0  0  0  0  0  0  0  0  0  0  0  0
    1.7819   -3.3200    0.0000 C   0  0  0  0  0  0  0  0  0  0  0  0
    3.1174   -2.6370    0.0000 C   0  0  0  0  0  0  0  0  0  0  0  0
    4.3766   -3.4522    0.0000 C   0  0  0  0  0  0  0  0  0  0  0  0
    3.1938   -1.1390    0.0000 C   0  0  0  0  0  0  0  0  0  0  0  0
    4.5293   -0.4561    0.0000 C   0  0  0  0  0  0  0  0  0  0  0  0
    4.6056    1.0420    0.0000 C   0  0  0  0  0  0  0  0  0  0  0  0
    5.9411    1.7249    0.0000 C   0  0  0  0  0  0  0  0  0  0  0  0
    6.0175    3.2230    0.0000 C   0  0  0  0  0  0  0  0  0  0  0  0
    7.2003    0.9098    0.0000 C   0  0  0  0  0  0  0  0  0  0  0  0
    8.5359    1.5927    0.0000 C   0  0  0  0  0  0  0  0  0  0  0  0
    9.7950    0.7776    0.0000 C   0  0  0  0  0  0  0  0  0  0  0  0
   11.1306    1.4605    0.0000 C   0  0  0  0  0  0  0  0  0  0  0  0
   12.3898    0.6454    0.0000 C   0  0  0  0  0  0  0  0  0  0  0  0
   11.2069    2.9586    0.0000 C   0  0  0  0  0  0  0  0  0  0  0  0
  1  2  1  0
  2  3  1  0
  2  4  2  0
  4  5  1  0
  5  6  1  0
  6  7  1  0
  7  8  1  0
  7  9  2  3
  9 10  1  0
 10 11  1  0
 11 12  1  0
 12 13  1  0
 12 14  2  3
 14 15  1  0
 15 16  1  0
 16 17  1  0
 17 18  2  3
 18 19  1  0
 18 20  1  0
 20 21  1  0
 21 22  1  0
 22 23  2  3
 23 24  1  0
 23 25  1  0
 25 26  1  0
 26 27  1  0
 27 28  2  0
 28 29  1  0
 28 30  1  0
M  END
> <Identifier>
Squalene

> <SkinReaction>
1

$$$$

     RDKit          2D

 12 11  0  0  0  0  0  0  0  0999 V2000
   -3.3105    1.7616    0.0000 C   0  0  0  0  0  0  0  0  0  0  0  0
   -3.2586    0.2625    0.0000 N   0  0  0  0  0  0  0  0  0  0  0  0
   -4.5309   -0.5320    0.0000 C   0  0  0  0  0  0  0  0  0  0  0  0
   -1.9344   -0.4422    0.0000 C   0  0  0  0  0  0  0  0  0  0  0  0
   -1.8826   -1.9413    0.0000 S   0  0  0  0  0  0  0  0  0  0  0  0
   -0.6621    0.3523    0.0000 S   0  0  0  0  0  0  0  0  0  0  0  0
    0.6621   -0.3523    0.0000 S   0  0  0  0  0  0  0  0  0  0  0  0
    1.9344    0.4422    0.0000 C   0  0  0  0  0  0  0  0  0  0  0  0
    1.8826    1.9413    0.0000 S   0  0  0  0  0  0  0  0  0  0  0  0
    3.2586   -0.2625    0.0000 N   0  0  0  0  0  0  0  0  0  0  0  0
    4.5309    0.5320    0.0000 C   0  0  0  0  0  0  0  0  0  0  0  0
    3.3105   -1.7616    0.0000 C   0  0  0  0  0  0  0  0  0  0  0  0
  1  2  1  0
  2  3  1  0
  2  4  1  0
  4  5  2  0
  4  6  1  0
  6  7  1  0
  7  8  1  0
  8  9  2  0
  8 10  1  0
 10 11  1  0
 10 12  1  0
M  END
> <Identifier>
Tetramethyl thiuram disulfide

> <SkinReaction>
1

$$$$

     RDKit          2D

 23 23  0  0  0  0  0  0  0  0999 V2000
    4.6957   -2.5981    0.0000 C   0  0  0  0  0  0  0  0  0  0  0  0
    3.9457   -1.2990    0.0000 C   0  0  0  0  0  0  0  0  0  0  0  0
    2.4457   -1.2990    0.0000 C   0  0  0  0  0  0  0  0  0  0  0  0
    1.6957    0.0000    0.0000 N   0  0  0  0  0  0  0  0  0  0  0  0
    2.4457    1.2990    0.0000 C   0  0  0  0  0  0  0  0  0  0  0  0
    3.9457    1.2990    0.0000 C   0  0  0  0  0  0  0  0  0  0  0  0
    4.6957    2.5981    0.0000 C   0  0  0  0  0  0  0  0  0  0  0  0
    0.1957    0.0000    0.0000 C   0  0  0  0  0  0  0  0  0  0  0  0
   -0.5543   -1.2990    0.0000 C   0  0  0  0  0  0  0  0  0  0  0  0
    0.1957   -2.5981    0.0000 N   0  0  0  0  0  4  0  0  0  0  0  0
    1.6957   -2.5981    0.0000 O   0  0  0  0  0  0  0  0  0  0  0  0
   -0.5543   -3.8971    0.0000 O   0  0  0  0  0  1  0  0  0  0  0  0
   -2.0543   -1.2990    0.0000 C   0  0  0  0  0  0  0  0  0  0  0  0
   -2.8043    0.0000    0.0000 C   0  0  0  0  0  0  0  0  0  0  0  0
   -4.3043    0.0000    0.0000 C   0  0  0  0  0  0  0  0  0  0  0  0
   -5.8043    0.0000    0.0000 F   0  0  0  0  0  0  0  0  0  0  0  0
   -4.3043    1.5000    0.0000 F   0  0  0  0  0  0  0  0  0  0  0  0
   -4.3043   -1.5000    0.0000 F   0  0  0  0  0  0  0  0  0  0  0  0
   -2.0543    1.2990    0.0000 C   0  0  0  0  0  0  0  0  0  0  0  0
   -0.5543    1.2990    0.0000 C   0  0  0  0  0  0  0  0  0  0  0  0
    0.1957    2.5981    0.0000 N   0  0  0  0  0  4  0  0  0  0  0  0
    1.6957    2.5981    0.0000 O   0  0  0  0  0  0  0  0  0  0  0  0
   -0.5543    3.8971    0.0000 O   0  0  0  0  0  1  0  0  0  0  0  0
  1  2  1  0
  2  3  1  0
  3  4  1  0
  4  5  1  0
  5  6  1  0
  6  7  1  0
  4  8  1  0
  8  9  2  0
  9 10  1  0
 10 11  2  0
 10 12  1  0
  9 13  1  0
 13 14  2  0
 14 15  1  0
 15 16  1  0
 15 17  1  0
 15 18  1  0
 14 19  1  0
 19 20  2  0
 20 21  1  0
 21 22  2  0
 21 23  1  0
 20  8  1  0
M  CHG  4  10   1  12  -1  21   1  23  -1
M  END
> <Identifier>
Trifluralin

> <SkinReaction>
1

$$$$

     RDKit          2D

 12 11  0  0  0  0  0  0  0  0999 V2000
   -7.1488   -0.2878    0.0000 C   0  0  0  0  0  0  0  0  0  0  0  0
   -5.8407    0.4463    0.0000 C   0  0  0  0  0  0  0  0  0  0  0  0
   -4.5509   -0.3195    0.0000 C   0  0  0  0  0  0  0  0  0  0  0  0
   -3.2428    0.4146    0.0000 C   0  0  0  0  0  0  0  0  0  0  0  0
   -1.9530   -0.3512    0.0000 C   0  0  0  0  0  0  0  0  0  0  0  0
   -0.6449    0.3829    0.0000 C   0  0  0  0  0  0  0  0  0  0  0  0
    0.6449   -0.3829    0.0000 C   0  0  0  0  0  0  0  0  0  0  0  0
    1.9530    0.3512    0.0000 C   0  0  0  0  0  0  0  0  0  0  0  0
    3.2428   -0.4146    0.0000 C   0  0  0  0  0  0  0  0  0  0  0  0
    4.5509    0.3195    0.0000 C   0  0  0  0  0  0  0  0  0  0  0  0
    5.8407   -0.4463    0.0000 C   0  0  0  0  0  0  0  0  0  0  0  0
    7.1488    0.2878    0.0000 O   0  0  0  0  0  0  0  0  0  0  0  0
  1  2  2  0
  2  3  1  0
  3  4  1  0
  4  5  1  0
  5  6  1  0
  6  7  1  0
  7  8  1  0
  8  9  1  0
  9 10  1  0
 10 11  1  0
 11 12  2  0
M  END
> <Identifier>
Undec-10-enal

> <SkinReaction>
1

$$$$

     RDKit          2D

  8  8  0  0  0  0  0  0  0  0999 V2000
   -3.0851    0.4695    0.0000 C   0  0  0  0  0  0  0  0  0  0  0  0
   -2.0677   -0.6327    0.0000 C   0  0  0  0  0  0  0  0  0  0  0  0
   -0.6045   -0.3028    0.0000 C   0  0  0  0  0  0  0  0  0  0  0  0
   -0.1586    1.1294    0.0000 C   0  0  0  0  0  0  0  0  0  0  0  0
    1.3047    1.4594    0.0000 C   0  0  0  0  0  0  0  0  0  0  0  0
    2.3221    0.3572    0.0000 N   0  0  0  0  0  0  0  0  0  0  0  0
    1.8762   -1.0750    0.0000 C   0  0  0  0  0  0  0  0  0  0  0  0
    0.4129   -1.4050    0.0000 C   0  0  0  0  0  0  0  0  0  0  0  0
  1  2  2  0
  2  3  1  0
  3  4  2  0
  4  5  1  0
  5  6  2  0
  6  7  1  0
  7  8  2  0
  8  3  1  0
M  END
> <Identifier>
Vinylpyridine

> <SkinReaction>
1

$$$$

     RDKit          2D

 27 29  0  0  0  0  0  0  0  0999 V2000
   -5.9517   -2.4554    0.0000 C   0  0  0  0  0  0  0  0  0  0  0  0
   -4.4669   -2.6690    0.0000 N   0  0  0  0  0  4  0  0  0  0  0  0
   -2.9822   -2.8826    0.0000 C   0  0  0  0  0  0  0  0  0  0  0  0
   -4.6805   -4.1537    0.0000 C   0  0  0  0  0  0  0  0  0  0  0  0
   -4.2534   -1.1843    0.0000 C   0  0  0  0  0  0  0  0  0  0  0  0
   -5.4324   -0.2570    0.0000 C   0  0  0  0  0  0  0  0  0  0  0  0
   -5.2189    1.2277    0.0000 C   0  0  0  0  0  0  0  0  0  0  0  0
   -3.8263    1.7852    0.0000 C   0  0  0  0  0  0  0  0  0  0  0  0
   -2.6472    0.8579    0.0000 C   0  0  0  0  0  0  0  0  0  0  0  0
   -2.8608   -0.6269    0.0000 C   0  0  0  0  0  0  0  0  0  0  0  0
   -1.2547    1.4153    0.0000 C   0  0  0  0  0  0  0  0  0  0  0  0
   -0.0756    0.4880    0.0000 N   0  0  0  0  0  0  0  0  0  0  0  0
    1.3169    1.0454    0.0000 N   0  0  0  0  0  0  0  0  0  0  0  0
    2.4960    0.1181    0.0000 C   0  0  0  0  0  0  0  0  0  0  0  0
    2.2824   -1.3666    0.0000 C   0  0  0  0  0  0  0  0  0  0  0  0
    3.4614   -2.2940    0.0000 C   0  0  0  0  0  0  0  0  0  0  0  0
    4.8540   -1.7365    0.0000 C   0  0  0  0  0  0  0  0  0  0  0  0
    6.0331   -2.6638    0.0000 N   0  0  0  0  0  0  0  0  0  0  0  0
    5.0676   -0.2518    0.0000 C   0  0  0  0  0  0  0  0  0  0  0  0
    6.4602    0.3056    0.0000 N   0  0  0  0  0  4  0  0  0  0  0  0
    7.6392   -0.6217    0.0000 O   0  0  0  0  0  0  0  0  0  0  0  0
    6.6737    1.7903    0.0000 O   0  0  0  0  0  1  0  0  0  0  0  0
    3.8886    0.6755    0.0000 C   0  0  0  0  0  0  0  0  0  0  0  0
   -1.0411    2.9000    0.0000 C   0  0  0  0  0  0  0  0  0  0  0  0
    0.3515    3.4574    0.0000 O   0  0  0  0  0  0  0  0  0  0  0  0
   -2.2201    3.8273    0.0000 C   0  0  0  0  0  0  0  0  0  0  0  0
   -3.6127    3.2699    0.0000 C   0  0  0  0  0  0  0  0  0  0  0  0
  1  2  1  0
  2  3  1  0
  2  4  1  0
  2  5  1  0
  5  6  2  0
  6  7  1  0
  7  8  2  0
  8  9  1  0
  9 10  2  0
  9 11  1  0
 11 12  2  3
 12 13  1  0
 13 14  1  0
 14 15  2  0
 15 16  1  0
 16 17  2  0
 17 18  1  0
 17 19  1  0
 19 20  1  0
 20 21  2  0
 20 22  1  0
 19 23  2  0
 11 24  1  0
 24 25  2  0
 24 26  1  0
 26 27  2  0
 10  5  1  0
 23 14  1  0
 27  8  1  0
M  CHG  3   2   1  20   1  22  -1
M  END
> <Identifier>
8-[(4-Amino-3-nitrophenyl)azo]-7-hydroxy-N,N,N-trimethyl-2-naphthalenaminium chloride (Basic brown 17, B007) (SCCP0683/03)

> <SkinReaction>
0

$$$$

     RDKit          2D

 16 16  0  0  0  0  0  0  0  0999 V2000
   -4.2608    3.0109    0.0000 C   0  0  0  0  0  0  0  0  0  0  0  0
   -4.0929    1.5203    0.0000 C   0  0  0  0  0  0  0  0  0  0  0  0
   -2.7181    0.9204    0.0000 O   0  0  0  0  0  0  0  0  0  0  0  0
   -2.5503   -0.5702    0.0000 C   0  0  0  0  0  0  0  0  0  0  0  0
   -3.7573   -1.4608    0.0000 O   0  0  0  0  0  0  0  0  0  0  0  0
   -1.1755   -1.1701    0.0000 C   0  0  0  0  0  0  0  0  0  0  0  0
   -1.7754   -2.5449    0.0000 C   0  0  0  0  0  0  0  0  0  0  0  0
   -0.5756    0.2047    0.0000 C   0  0  0  0  0  0  0  0  0  0  0  0
    0.1993   -1.7701    0.0000 O   0  0  0  0  0  0  0  0  0  0  0  0
    1.4063   -0.8794    0.0000 C   0  0  0  0  0  0  0  0  0  0  0  0
    1.2384    0.6112    0.0000 C   0  0  0  0  0  0  0  0  0  0  0  0
    2.4454    1.5018    0.0000 C   0  0  0  0  0  0  0  0  0  0  0  0
    3.8202    0.9019    0.0000 C   0  0  0  0  0  0  0  0  0  0  0  0
    5.0272    1.7925    0.0000 Cl  0  0  0  0  0  0  0  0  0  0  0  0
    3.9880   -0.5887    0.0000 C   0  0  0  0  0  0  0  0  0  0  0  0
    2.7811   -1.4794    0.0000 C   0  0  0  0  0  0  0  0  0  0  0  0
  1  2  1  0
  2  3  1  0
  3  4  1  0
  4  5  2  0
  4  6  1  0
  6  7  1  0
  6  8  1  0
  6  9  1  0
  9 10  1  0
 10 11  2  0
 11 12  1  0
 12 13  2  0
 13 14  1  0
 13 15  1  0
 15 16  2  0
 16 10  1  0
M  END
> <Identifier>
Ethyl (2-(4-chlorophenoxy)-2-methylpropanoate

> <SkinReaction>
0

$$$$

     RDKit          2D

 11 10  0  0  0  0  0  0  0  0999 V2000
    6.2482    0.4209    0.0000 C   0  0  0  0  0  0  0  0  0  0  0  0
    4.9759   -0.3736    0.0000 C   0  0  0  0  0  0  0  0  0  0  0  0
    3.6517    0.3310    0.0000 C   0  0  0  0  0  0  0  0  0  0  0  0
    2.3793   -0.4635    0.0000 C   0  0  0  0  0  0  0  0  0  0  0  0
    1.0551    0.2412    0.0000 C   0  0  0  0  0  0  0  0  0  0  0  0
   -0.2172   -0.5533    0.0000 C   0  0  0  0  0  0  0  0  0  0  0  0
   -1.5414    0.1513    0.0000 C   0  0  0  0  0  0  0  0  0  0  0  0
   -2.8137   -0.6431    0.0000 C   0  0  0  0  0  0  0  0  0  0  0  0
   -4.1379    0.0615    0.0000 C   0  0  0  0  0  0  0  0  0  0  0  0
   -4.1898    1.5606    0.0000 O   0  0  0  0  0  0  0  0  0  0  0  0
   -5.4102   -0.7330    0.0000 O   0  0  0  0  0  0  0  0  0  0  0  0
  1  2  1  0
  2  3  1  0
  3  4  1  0
  4  5  1  0
  5  6  1  0
  6  7  1  0
  7  8  1  0
  8  9  1  0
  9 10  2  0
  9 11  1  0
M  END
> <Identifier>
Nonanoic acid

> <SkinReaction>
0

$$$$

     RDKit          2D

 40 42  0  0  0  0  0  0  0  0999 V2000
    2.0826   -3.4738    0.0000 C   0  0  0  0  0  0  0  0  0  0  0  0
    3.5788   -3.5812    0.0000 N   0  0  0  0  0  0  0  0  0  0  0  0
    4.4199   -2.3393    0.0000 C   0  0  0  0  0  0  0  0  0  0  0  0
    3.7649   -0.9898    0.0000 C   0  0  0  0  0  0  0  0  0  0  0  0
    2.2687   -0.8824    0.0000 O   0  0  0  0  0  0  0  0  0  0  0  0
    1.6137    0.4671    0.0000 C   0  0  0  0  0  0  0  0  0  0  0  0
    0.1370    0.7303    0.0000 C   0  0  0  0  0  0  0  0  0  0  0  0
   -0.9440   -0.3096    0.0000 O   0  0  0  0  0  0  0  0  0  0  0  0
   -2.3851    0.1066    0.0000 C   0  0  0  0  0  0  0  0  0  0  0  0
   -2.7452    1.5627    0.0000 C   0  0  0  0  0  0  0  0  0  0  0  0
   -1.6642    2.6026    0.0000 O   0  0  0  0  0  0  0  0  0  0  0  0
   -4.1863    1.9789    0.0000 C   0  0  0  0  0  0  0  0  0  0  0  0
   -4.5464    3.4350    0.0000 O   0  0  0  0  0  0  0  0  0  0  0  0
   -5.2673    0.9389    0.0000 C   0  0  0  0  0  0  0  0  0  0  0  0
   -6.7084    1.3551    0.0000 N   0  0  0  0  0  0  0  0  0  0  0  0
   -7.7894    0.3152    0.0000 C   0  0  0  0  0  0  0  0  0  0  0  0
   -7.4292   -1.1410    0.0000 N   0  0  0  0  0  0  0  0  0  0  0  0
   -9.2305    0.7314    0.0000 N   0  0  0  0  0  0  0  0  0  0  0  0
   -4.9071   -0.5172    0.0000 C   0  0  0  0  0  0  0  0  0  0  0  0
   -5.9881   -1.5571    0.0000 O   0  0  0  0  0  0  0  0  0  0  0  0
   -3.4660   -0.9334    0.0000 C   0  0  0  0  0  0  0  0  0  0  0  0
   -3.1059   -2.3895    0.0000 N   0  0  0  0  0  0  0  0  0  0  0  0
   -4.1869   -3.4295    0.0000 C   0  0  0  0  0  0  0  0  0  0  0  0
   -5.6280   -3.0133    0.0000 N   0  0  0  0  0  0  0  0  0  0  0  0
   -3.8268   -4.8856    0.0000 N   0  0  0  0  0  0  0  0  0  0  0  0
   -0.0689    2.2161    0.0000 O   0  0  0  0  0  0  0  0  0  0  0  0
    1.2805    2.8711    0.0000 C   0  0  0  0  0  0  0  0  0  0  0  0
    1.5438    4.3478    0.0000 C   0  0  0  0  0  0  0  0  0  0  0  0
    2.3205    1.7901    0.0000 C   0  0  0  0  0  0  0  0  0  0  0  0
    3.5624    0.9490    0.0000 O   0  0  0  0  0  0  0  0  0  0  0  0
    3.2868    2.9374    0.0000 C   0  0  0  0  0  0  0  0  0  0  0  0
    2.7765    4.3479    0.0000 O   0  0  0  0  0  0  0  0  0  0  0  0
    4.6060    0.2521    0.0000 O   0  0  0  0  0  0  0  0  0  0  0  0
    6.1022    0.1447    0.0000 C   0  0  0  0  0  0  0  0  0  0  0  0
    6.9433    1.3866    0.0000 C   0  0  0  0  0  0  0  0  0  0  0  0
    6.2883    2.7361    0.0000 O   0  0  0  0  0  0  0  0  0  0  0  0
    6.7572   -1.2048    0.0000 C   0  0  0  0  0  0  0  0  0  0  0  0
    8.2533   -1.3122    0.0000 O   0  0  0  0  0  0  0  0  0  0  0  0
    5.9160   -2.4467    0.0000 C   0  0  0  0  0  0  0  0  0  0  0  0
    6.5710   -3.7962    0.0000 O   0  0  0  0  0  0  0  0  0  0  0  0
  1  2  1  0
  2  3  1  0
  3  4  1  0
  4  5  1  0
  5  6  1  0
  6  7  1  0
  7  8  1  0
  8  9  1  0
  9 10  1  0
 10 11  1  0
 10 12  1  0
 12 13  1  0
 12 14  1  0
 14 15  1  0
 15 16  1  0
 16 17  2  0
 16 18  1  0
 14 19  1  0
 19 20  1  0
 19 21  1  0
 21 22  1  0
 22 23  1  0
 23 24  2  0
 23 25  1  0
  7 26  1  0
 26 27  1  0
 27 28  1  0
 27 29  1  0
 29 30  1  0
 29 31  1  0
 31 32  2  0
  4 33  1  0
 33 34  1  0
 34 35  1  0
 35 36  1  0
 34 37  1  0
 37 38  1  0
 37 39  1  0
 39 40  1  0
 39  3  1  0
 29  6  1  0
 21  9  1  0
M  END
> <Identifier>
Streptomycin sulfate

> <SkinReaction>
0

$$$$

     RDKit          2D

 11 12  0  0  0  0  0  0  0  0999 V2000
   -1.7858    2.6401    0.0000 O   0  0  0  0  0  0  0  0  0  0  0  0
   -1.3223    1.2135    0.0000 C   0  0  0  0  0  0  0  0  0  0  0  0
   -2.2040    0.0000    0.0000 O   0  0  0  0  0  0  0  0  0  0  0  0
   -1.3223   -1.2135    0.0000 C   0  0  0  0  0  0  0  0  0  0  0  0
   -1.7858   -2.6401    0.0000 O   0  0  0  0  0  0  0  0  0  0  0  0
    0.1043   -0.7500    0.0000 C   0  0  0  0  0  0  0  0  0  0  0  0
    1.4033   -1.5000    0.0000 C   0  0  0  0  0  0  0  0  0  0  0  0
    2.7024   -0.7500    0.0000 C   0  0  0  0  0  0  0  0  0  0  0  0
    2.7024    0.7500    0.0000 C   0  0  0  0  0  0  0  0  0  0  0  0
    1.4033    1.5000    0.0000 C   0  0  0  0  0  0  0  0  0  0  0  0
    0.1043    0.7500    0.0000 C   0  0  0  0  0  0  0  0  0  0  0  0
  1  2  2  0
  2  3  1  0
  3  4  1  0
  4  5  2  0
  4  6  1  0
  6  7  1  0
  7  8  1  0
  8  9  1  0
  9 10  1  0
 10 11  1  0
 11  2  1  0
 11  6  1  0
M  END
> <Identifier>
1,2-cyclohexane dicarboxylic anhydride

> <SkinReaction>
1

$$$$

     RDKit          2D

  9  9  0  0  0  0  0  0  0  0999 V2000
   -2.5981   -0.8333    0.0000 C   0  0  0  0  0  0  0  0  0  0  0  0
   -1.2990   -0.0833    0.0000 C   0  0  0  0  0  0  0  0  0  0  0  0
   -1.2990    1.4167    0.0000 C   0  0  0  0  0  0  0  0  0  0  0  0
    0.0000    2.1667    0.0000 C   0  0  0  0  0  0  0  0  0  0  0  0
    1.2990    1.4167    0.0000 C   0  0  0  0  0  0  0  0  0  0  0  0
    1.2990   -0.0833    0.0000 C   0  0  0  0  0  0  0  0  0  0  0  0
    2.5981   -0.8333    0.0000 O   0  0  0  0  0  0  0  0  0  0  0  0
   -0.0000   -0.8333    0.0000 C   0  0  0  0  0  0  0  0  0  0  0  0
   -0.0000   -2.3333    0.0000 O   0  0  0  0  0  0  0  0  0  0  0  0
  1  2  1  0
  2  3  2  0
  3  4  1  0
  4  5  2  0
  5  6  1  0
  6  7  1  0
  6  8  2  0
  8  9  1  0
  8  2  1  0
M  END
> <Identifier>
3-Methyl catechol

> <SkinReaction>
1

$$$$

     RDKit          2D

  9  9  0  0  0  0  0  0  0  0999 V2000
    1.8243   -1.9450    0.0000 C   0  0  0  0  0  0  0  0  0  0  0  0
    0.7981   -0.8510    0.0000 C   0  0  0  0  0  0  0  0  0  0  0  0
   -0.6625   -1.1926    0.0000 C   0  0  0  0  0  0  0  0  0  0  0  0
   -1.6886   -0.0985    0.0000 C   0  0  0  0  0  0  0  0  0  0  0  0
   -3.1492   -0.4401    0.0000 O   0  0  0  0  0  0  0  0  0  0  0  0
   -1.2542    1.3372    0.0000 C   0  0  0  0  0  0  0  0  0  0  0  0
    0.2064    1.6788    0.0000 C   0  0  0  0  0  0  0  0  0  0  0  0
    1.2325    0.5848    0.0000 C   0  0  0  0  0  0  0  0  0  0  0  0
    2.6931    0.9264    0.0000 N   0  0  0  0  0  0  0  0  0  0  0  0
  1  2  1  0
  2  3  2  0
  3  4  1  0
  4  5  1  0
  4  6  2  0
  6  7  1  0
  7  8  2  0
  8  9  1  0
  8  2  1  0
M  END
> <Identifier>
4-Aminocresol; 3-methyl-4-aminophenol (SCCP/0898/05) 

> <SkinReaction>
1

$$$$

     RDKit          2D

 13 13  0  0  0  0  0  0  0  0999 V2000
   -3.0373    1.6280    0.0000 O   0  0  0  0  0  0  0  0  0  0  0  0
   -3.5146    0.2059    0.0000 C   0  0  0  0  0  0  0  0  0  0  0  0
   -4.9848   -0.0917    0.0000 O   0  0  0  0  0  0  0  0  0  0  0  0
   -2.5217   -0.9184    0.0000 C   0  0  0  0  0  0  0  0  0  0  0  0
   -1.0516   -0.6207    0.0000 C   0  0  0  0  0  0  0  0  0  0  0  0
   -0.5743    0.8013    0.0000 C   0  0  0  0  0  0  0  0  0  0  0  0
    0.8959    1.0990    0.0000 C   0  0  0  0  0  0  0  0  0  0  0  0
    1.8888   -0.0254    0.0000 C   0  0  0  0  0  0  0  0  0  0  0  0
    3.3589    0.2723    0.0000 C   0  0  0  0  0  0  0  0  0  0  0  0
    3.8362    1.6943    0.0000 O   0  0  0  0  0  0  0  0  0  0  0  0
    4.3518   -0.8521    0.0000 O   0  0  0  0  0  0  0  0  0  0  0  0
    1.4115   -1.4474    0.0000 C   0  0  0  0  0  0  0  0  0  0  0  0
   -0.0587   -1.7451    0.0000 C   0  0  0  0  0  0  0  0  0  0  0  0
  1  2  2  0
  2  3  1  0
  2  4  1  0
  4  5  1  0
  5  6  2  0
  6  7  1  0
  7  8  2  0
  8  9  1  0
  9 10  2  0
  9 11  1  0
  8 12  1  0
 12 13  2  0
 13  5  1  0
M  END
> <Identifier>
4-Carboxyphenylacetate

> <SkinReaction>
1

$$$$

     RDKit          2D

 13 14  0  0  0  0  0  0  0  0999 V2000
   -4.2169    1.4328    0.0000 C   0  0  0  0  0  0  0  0  0  0  0  0
   -2.9475    0.6335    0.0000 C   0  0  0  0  0  0  0  0  0  0  0  0
   -2.8481   -0.8632    0.0000 C   0  0  0  0  0  0  0  0  0  0  0  0
   -1.3939   -1.2311    0.0000 C   0  0  0  0  0  0  0  0  0  0  0  0
   -0.8368   -2.6238    0.0000 O   0  0  0  0  0  0  0  0  0  0  0  0
   -0.5946    0.0382    0.0000 N   0  0  0  0  0  0  0  0  0  0  0  0
    0.9021    0.1377    0.0000 C   0  0  0  0  0  0  0  0  0  0  0  0
    1.7366   -1.1088    0.0000 C   0  0  0  0  0  0  0  0  0  0  0  0
    3.2333   -1.0093    0.0000 C   0  0  0  0  0  0  0  0  0  0  0  0
    3.8955    0.3366    0.0000 C   0  0  0  0  0  0  0  0  0  0  0  0
    3.0610    1.5831    0.0000 C   0  0  0  0  0  0  0  0  0  0  0  0
    1.5643    1.4836    0.0000 C   0  0  0  0  0  0  0  0  0  0  0  0
   -1.5548    1.1906    0.0000 N   0  0  0  0  0  0  0  0  0  0  0  0
  1  2  1  0
  2  3  2  0
  3  4  1  0
  4  5  2  0
  4  6  1  0
  6  7  1  0
  7  8  2  0
  8  9  1  0
  9 10  2  0
 10 11  1  0
 11 12  2  0
  6 13  1  0
 13  2  1  0
 12  7  1  0
M  END
> <Identifier>
5-methyl-2-phenyl-2,4-dihydro-pyrazol-3-one (Phenylmethylpyrazole;  A039)

> <SkinReaction>
1

$$$$

     RDKit          2D

 18 19  0  0  0  0  0  0  0  0999 V2000
   -1.5210   -2.2359    0.0000 O   0  0  0  0  0  0  0  0  0  0  0  0
   -1.8297   -0.7680    0.0000 C   0  0  0  0  0  0  0  0  0  0  0  0
   -0.7128    0.2333    0.0000 O   0  0  0  0  0  0  0  0  0  0  0  0
    0.7128   -0.2333    0.0000 O   0  0  0  0  0  0  0  0  0  0  0  0
    1.8297    0.7680    0.0000 C   0  0  0  0  0  0  0  0  0  0  0  0
    1.5210    2.2359    0.0000 O   0  0  0  0  0  0  0  0  0  0  0  0
    3.2553    0.3014    0.0000 C   0  0  0  0  0  0  0  0  0  0  0  0
    3.5640   -1.1665    0.0000 C   0  0  0  0  0  0  0  0  0  0  0  0
    4.9895   -1.6331    0.0000 C   0  0  0  0  0  0  0  0  0  0  0  0
    6.1064   -0.6318    0.0000 C   0  0  0  0  0  0  0  0  0  0  0  0
    5.7977    0.8361    0.0000 C   0  0  0  0  0  0  0  0  0  0  0  0
    4.3721    1.3027    0.0000 C   0  0  0  0  0  0  0  0  0  0  0  0
   -3.2553   -0.3014    0.0000 C   0  0  0  0  0  0  0  0  0  0  0  0
   -3.5640    1.1665    0.0000 C   0  0  0  0  0  0  0  0  0  0  0  0
   -4.9895    1.6331    0.0000 C   0  0  0  0  0  0  0  0  0  0  0  0
   -6.1064    0.6318    0.0000 C   0  0  0  0  0  0  0  0  0  0  0  0
   -5.7977   -0.8361    0.0000 C   0  0  0  0  0  0  0  0  0  0  0  0
   -4.3721   -1.3027    0.0000 C   0  0  0  0  0  0  0  0  0  0  0  0
  1  2  2  0
  2  3  1  0
  3  4  1  0
  4  5  1  0
  5  6  2  0
  5  7  1  0
  7  8  2  0
  8  9  1  0
  9 10  2  0
 10 11  1  0
 11 12  2  0
  2 13  1  0
 13 14  2  0
 14 15  1  0
 15 16  2  0
 16 17  1  0
 17 18  2  0
 12  7  1  0
 18 13  1  0
M  END
> <Identifier>
Benzoyl peroxide

> <SkinReaction>
1

$$$$

     RDKit          2D

 16 18  0  0  0  0  0  0  0  0999 V2000
    0.0000   -3.6679    0.0000 O   0  0  0  0  0  0  0  0  0  0  0  0
    0.0000   -2.1679    0.0000 C   0  0  0  0  0  0  0  0  0  0  0  0
    0.7500   -0.8689    0.0000 C   0  0  0  0  0  0  0  0  0  0  0  0
    2.0490   -0.1189    0.0000 C   0  0  0  0  0  0  0  0  0  0  0  0
    3.3481   -0.8689    0.0000 C   0  0  0  0  0  0  0  0  0  0  0  0
    4.6471   -0.1189    0.0000 C   0  0  0  0  0  0  0  0  0  0  0  0
    4.6471    1.3811    0.0000 C   0  0  0  0  0  0  0  0  0  0  0  0
    3.3481    2.1311    0.0000 C   0  0  0  0  0  0  0  0  0  0  0  0
    2.0490    1.3811    0.0000 C   0  0  0  0  0  0  0  0  0  0  0  0
   -0.7500   -0.8689    0.0000 C   0  0  0  0  0  0  0  0  0  0  0  0
   -2.0490   -0.1189    0.0000 C   0  0  0  0  0  0  0  0  0  0  0  0
   -2.0490    1.3811    0.0000 C   0  0  0  0  0  0  0  0  0  0  0  0
   -3.3481    2.1311    0.0000 C   0  0  0  0  0  0  0  0  0  0  0  0
   -4.6471    1.3811    0.0000 C   0  0  0  0  0  0  0  0  0  0  0  0
   -4.6471   -0.1189    0.0000 C   0  0  0  0  0  0  0  0  0  0  0  0
   -3.3481   -0.8689    0.0000 C   0  0  0  0  0  0  0  0  0  0  0  0
  1  2  2  0
  2  3  1  0
  3  4  1  0
  4  5  2  0
  5  6  1  0
  6  7  2  0
  7  8  1  0
  8  9  2  0
  3 10  2  0
 10 11  1  0
 11 12  2  0
 12 13  1  0
 13 14  2  0
 14 15  1  0
 15 16  2  0
 10  2  1  0
 16 11  1  0
  9  4  1  0
M  END
> <Identifier>
Diphenylcyclopropenone

> <SkinReaction>
1

$$$$

     RDKit          2D

 18 20  0  0  0  0  0  0  0  0999 V2000
   -2.3094   -3.0000    0.0000 N   0  0  0  0  0  0  0  0  0  0  0  0
   -2.3094   -1.5000    0.0000 C   0  0  0  0  0  0  0  0  0  0  0  0
   -3.6084   -0.7500    0.0000 C   0  0  0  0  0  0  0  0  0  0  0  0
   -3.6084    0.7500    0.0000 C   0  0  0  0  0  0  0  0  0  0  0  0
   -2.3094    1.5000    0.0000 C   0  0  0  0  0  0  0  0  0  0  0  0
   -2.3094    3.0000    0.0000 N   0  0  0  0  0  0  0  0  0  0  0  0
   -1.0104    0.7500    0.0000 C   0  0  0  0  0  0  0  0  0  0  0  0
   -1.0104   -0.7500    0.0000 C   0  0  0  0  0  0  0  0  0  0  0  0
    0.2887   -1.5000    0.0000 C   0  0  0  0  0  0  0  0  0  0  0  0
    0.2887   -3.0000    0.0000 O   0  0  0  0  0  0  0  0  0  0  0  0
    1.5877   -0.7500    0.0000 C   0  0  0  0  0  0  0  0  0  0  0  0
    2.8868   -1.5000    0.0000 C   0  0  0  0  0  0  0  0  0  0  0  0
    4.1858   -0.7500    0.0000 C   0  0  0  0  0  0  0  0  0  0  0  0
    4.1858    0.7500    0.0000 C   0  0  0  0  0  0  0  0  0  0  0  0
    2.8868    1.5000    0.0000 C   0  0  0  0  0  0  0  0  0  0  0  0
    1.5877    0.7500    0.0000 C   0  0  0  0  0  0  0  0  0  0  0  0
    0.2887    1.5000    0.0000 C   0  0  0  0  0  0  0  0  0  0  0  0
    0.2887    3.0000    0.0000 O   0  0  0  0  0  0  0  0  0  0  0  0
  1  2  1  0
  2  3  2  0
  3  4  1  0
  4  5  2  0
  5  6  1  0
  5  7  1  0
  7  8  2  0
  8  9  1  0
  9 10  2  0
  9 11  1  0
 11 12  2  0
 12 13  1  0
 13 14  2  0
 14 15  1  0
 15 16  2  0
 16 17  1  0
 17 18  2  0
  8  2  1  0
 16 11  1  0
 17  7  1  0
M  END
> <Identifier>
Disperse Violet 1 (1,4-diamino-9,10-anthracenedione)

> <SkinReaction>
1

$$$$

     RDKit          2D

 16 16  0  0  0  0  0  0  0  0999 V2000
    4.0382   -1.2773    0.0000 N   0  0  0  0  0  0  0  0  0  0  0  0
    2.5514   -1.0785    0.0000 C   0  0  0  0  0  0  0  0  0  0  0  0
    1.6358   -2.2666    0.0000 C   0  0  0  0  0  0  0  0  0  0  0  0
    0.1491   -2.0678    0.0000 C   0  0  0  0  0  0  0  0  0  0  0  0
   -0.4221   -0.6808    0.0000 C   0  0  0  0  0  0  0  0  0  0  0  0
   -1.9089   -0.4819    0.0000 N   0  0  0  0  0  0  0  0  0  0  0  0
   -2.8245   -1.6700    0.0000 C   0  0  0  0  0  0  0  0  0  0  0  0
   -4.3112   -1.4712    0.0000 O   0  0  0  0  0  0  0  0  0  0  0  0
   -2.4800    0.9051    0.0000 C   0  0  0  0  0  0  0  0  0  0  0  0
   -3.9668    1.1040    0.0000 C   0  0  0  0  0  0  0  0  0  0  0  0
   -4.5379    2.4910    0.0000 O   0  0  0  0  0  0  0  0  0  0  0  0
    0.4935    0.5074    0.0000 C   0  0  0  0  0  0  0  0  0  0  0  0
    1.9803    0.3085    0.0000 C   0  0  0  0  0  0  0  0  0  0  0  0
    2.8959    1.4967    0.0000 N   0  0  0  0  0  4  0  0  0  0  0  0
    4.3826    1.2978    0.0000 O   0  0  0  0  0  0  0  0  0  0  0  0
    2.3247    2.8837    0.0000 O   0  0  0  0  0  1  0  0  0  0  0  0
  1  2  1  0
  2  3  2  0
  3  4  1  0
  4  5  2  0
  5  6  1  0
  6  7  1  0
  7  8  1  0
  6  9  1  0
  9 10  1  0
 10 11  1  0
  5 12  1  0
 12 13  2  0
 13 14  1  0
 14 15  2  0
 14 16  1  0
 13  2  1  0
M  CHG  2  14   1  16  -1
M  END
> <Identifier>
HC Red 13

> <SkinReaction>
1

$$$$

     RDKit          2D

  7  7  0  0  0  0  0  0  0  0999 V2000
    2.6401   -0.6127    0.0000 O   0  0  0  0  0  0  0  0  0  0  0  0
    1.2135   -0.1492    0.0000 C   0  0  0  0  0  0  0  0  0  0  0  0
    0.7500    1.2774    0.0000 C   0  0  0  0  0  0  0  0  0  0  0  0
   -0.7500    1.2774    0.0000 C   0  0  0  0  0  0  0  0  0  0  0  0
   -1.2135   -0.1492    0.0000 C   0  0  0  0  0  0  0  0  0  0  0  0
   -2.6401   -0.6127    0.0000 O   0  0  0  0  0  0  0  0  0  0  0  0
   -0.0000   -1.0309    0.0000 O   0  0  0  0  0  0  0  0  0  0  0  0
  1  2  2  0
  2  3  1  0
  3  4  2  0
  4  5  1  0
  5  6  2  0
  5  7  1  0
  7  2  1  0
M  END
> <Identifier>
Maleic anhydride

> <SkinReaction>
1

$$$$

     RDKit          2D

 11 11  0  0  0  0  0  0  0  0999 V2000
   -3.5305    1.0797    0.0000 C   0  0  0  0  0  0  0  0  0  0  0  0
   -2.6580   -0.1404    0.0000 N   0  0  0  0  0  0  0  0  0  0  0  0
   -3.2784   -1.5061    0.0000 C   0  0  0  0  0  0  0  0  0  0  0  0
   -1.1651    0.0051    0.0000 C   0  0  0  0  0  0  0  0  0  0  0  0
   -0.5446    1.3708    0.0000 C   0  0  0  0  0  0  0  0  0  0  0  0
    0.9483    1.5163    0.0000 C   0  0  0  0  0  0  0  0  0  0  0  0
    1.8208    0.2961    0.0000 C   0  0  0  0  0  0  0  0  0  0  0  0
    3.3137    0.4417    0.0000 N   0  0  0  0  0  0  0  0  0  0  0  0
    4.1862   -0.7785    0.0000 O   0  0  0  0  0  0  0  0  0  0  0  0
    1.2003   -1.0695    0.0000 C   0  0  0  0  0  0  0  0  0  0  0  0
   -0.2926   -1.2151    0.0000 C   0  0  0  0  0  0  0  0  0  0  0  0
  1  2  1  0
  2  3  1  0
  2  4  1  0
  4  5  2  0
  5  6  1  0
  6  7  2  0
  7  8  1  0
  8  9  2  0
  7 10  1  0
 10 11  2  0
 11  4  1  0
M  END
> <Identifier>
N,N-dimethyl-4-nitrosoaniline

> <SkinReaction>
1

$$$$

     RDKit          2D

 11 12  0  0  0  0  0  0  0  0999 V2000
   -1.7858    2.6401    0.0000 O   0  0  0  0  0  0  0  0  0  0  0  0
   -1.3223    1.2135    0.0000 C   0  0  0  0  0  0  0  0  0  0  0  0
   -2.2040    0.0000    0.0000 O   0  0  0  0  0  0  0  0  0  0  0  0
   -1.3223   -1.2135    0.0000 C   0  0  0  0  0  0  0  0  0  0  0  0
   -1.7858   -2.6401    0.0000 O   0  0  0  0  0  0  0  0  0  0  0  0
    0.1043   -0.7500    0.0000 C   0  0  0  0  0  0  0  0  0  0  0  0
    1.4033   -1.5000    0.0000 C   0  0  0  0  0  0  0  0  0  0  0  0
    2.7024   -0.7500    0.0000 C   0  0  0  0  0  0  0  0  0  0  0  0
    2.7024    0.7500    0.0000 C   0  0  0  0  0  0  0  0  0  0  0  0
    1.4033    1.5000    0.0000 C   0  0  0  0  0  0  0  0  0  0  0  0
    0.1043    0.7500    0.0000 C   0  0  0  0  0  0  0  0  0  0  0  0
  1  2  2  0
  2  3  1  0
  3  4  1  0
  4  5  2  0
  4  6  1  0
  6  7  2  0
  7  8  1  0
  8  9  2  0
  9 10  1  0
 10 11  2  0
 11  2  1  0
 11  6  1  0
M  END
> <Identifier>
Phthalic anhydride

> <SkinReaction>
1

$$$$

     RDKit          2D

 15 15  0  0  0  0  0  0  0  0999 V2000
   -6.3130    0.4859    0.0000 C   0  0  0  0  0  0  0  0  0  0  0  0
   -4.8682    0.8891    0.0000 C   0  0  0  0  0  0  0  0  0  0  0  0
   -3.7966   -0.1605    0.0000 C   0  0  0  0  0  0  0  0  0  0  0  0
   -2.3518    0.2427    0.0000 O   0  0  0  0  0  0  0  0  0  0  0  0
   -1.2802   -0.8069    0.0000 C   0  0  0  0  0  0  0  0  0  0  0  0
   -1.6534   -2.2597    0.0000 O   0  0  0  0  0  0  0  0  0  0  0  0
    0.1646   -0.4036    0.0000 C   0  0  0  0  0  0  0  0  0  0  0  0
    0.5377    1.0492    0.0000 C   0  0  0  0  0  0  0  0  0  0  0  0
    1.9825    1.4524    0.0000 C   0  0  0  0  0  0  0  0  0  0  0  0
    2.3557    2.9053    0.0000 O   0  0  0  0  0  0  0  0  0  0  0  0
    3.0541    0.4028    0.0000 C   0  0  0  0  0  0  0  0  0  0  0  0
    4.4989    0.8061    0.0000 O   0  0  0  0  0  0  0  0  0  0  0  0
    2.6810   -1.0500    0.0000 C   0  0  0  0  0  0  0  0  0  0  0  0
    3.7526   -2.0996    0.0000 O   0  0  0  0  0  0  0  0  0  0  0  0
    1.2362   -1.4532    0.0000 C   0  0  0  0  0  0  0  0  0  0  0  0
  1  2  1  0
  2  3  1  0
  3  4  1  0
  4  5  1  0
  5  6  2  0
  5  7  1  0
  7  8  2  0
  8  9  1  0
  9 10  1  0
  9 11  2  0
 11 12  1  0
 11 13  1  0
 13 14  1  0
 13 15  2  0
 15  7  1  0
M  END
> <Identifier>
Propyl gallate

> <SkinReaction>
1

$$$$

     RDKit          2D

  8  8  0  0  0  0  0  0  0  0999 V2000
    2.5607    0.0000    0.0000 O   0  0  0  0  0  0  0  0  0  0  0  0
    1.0607    0.0000    0.0000 C   0  0  0  0  0  0  0  0  0  0  0  0
   -0.0000   -1.0607    0.0000 C   0  0  0  0  0  0  0  0  0  0  0  0
   -0.0000   -2.5607    0.0000 O   0  0  0  0  0  0  0  0  0  0  0  0
   -1.0607    0.0000    0.0000 C   0  0  0  0  0  0  0  0  0  0  0  0
   -2.5607    0.0000    0.0000 O   0  0  0  0  0  0  0  0  0  0  0  0
    0.0000    1.0607    0.0000 C   0  0  0  0  0  0  0  0  0  0  0  0
    0.0000    2.5607    0.0000 O   0  0  0  0  0  0  0  0  0  0  0  0
  1  2  2  0
  2  3  1  0
  3  4  1  0
  3  5  2  0
  5  6  1  0
  5  7  1  0
  7  8  2  0
  7  2  1  0
M  END
> <Identifier>
Squaric acid

> <SkinReaction>
1

$$$$
